22
astex_1n2j_04.xyz
O          2.78850       -0.24870       -1.38580
C          2.05120        0.21380       -0.53830
O          2.16940        1.46630       -0.12150
C          0.98600       -0.68890        0.10840
O          1.09650       -1.94640       -0.51050
C         -0.47760       -0.17910        0.01200
C         -0.73570        0.48830       -1.33570
C         -1.40640       -1.38720        0.16880
C         -0.83480        0.73980        1.17180
O         -0.05180        1.94270        1.14570
H          1.41220        1.69090        0.46880
H          1.24490       -0.77650        1.17330
H          1.85720       -1.83970       -1.10940
H         -0.19520        1.42800       -1.43680
H         -0.42160       -0.17980       -2.13730
H         -1.79940        0.69270       -1.46080
H         -1.19530       -1.93450        1.08800
H         -2.44420       -1.05310        0.19280
H         -1.27540       -2.07150       -0.66260
H         -0.66970        0.20850        2.11280
H         -1.89230        1.00110        1.09770
H         -0.20630        2.43300        1.95860
