43
astex_1meh_17.xyz
C         -3.90090        2.80820        0.78700
O         -3.74690        3.74580        1.54120
C         -2.88050        2.00510        0.13010
C         -3.48320        1.04000       -0.65410
C         -4.96630        1.22220       -0.49660
O         -5.12380        2.33490        0.41090
C         -2.73330        0.14530       -1.40490
C         -3.36800       -0.87890       -2.29830
C         -1.33640        0.28890       -1.29780
C         -0.70600        1.28860       -0.53290
C         -1.50410        2.16370        0.20980
O         -0.94020        3.12820        0.97470
C          0.79220        1.42220       -0.49960
C          1.37590        0.59850        0.61030
C          2.26720       -0.40000        0.49430
C          2.75920       -1.10910        1.72490
C          4.25620       -0.85920        1.97870
C          4.69550       -1.57600        3.23210
O          4.77160       -1.06630        4.31910
O          4.95650       -2.90680        3.08270
C          2.84700       -0.86990       -0.80910
O         -0.52210       -0.55810       -2.01910
C         -0.40670       -1.84470       -1.40660
H         -5.46680        1.47830       -1.43070
H         -5.46020        0.35710       -0.05430
H         -3.65240       -1.77630       -1.74610
H         -2.68430       -1.17140       -3.09170
H         -4.27240       -0.47700       -2.75400
H         -1.67690        3.61700        1.38750
H          1.20190        1.13880       -1.46470
H          1.03200        2.47230       -0.32340
H          1.02480        0.85270        1.60620
H          2.58780       -2.18560        1.62010
H          2.19950       -0.77420        2.59850
H          4.84690       -1.18990        1.12300
H          4.42530        0.20480        2.12450
H          4.87270       -3.13680        2.15080
H          2.89450       -1.96120       -0.82750
H          3.86620       -0.50370       -0.94600
H          2.25940       -0.54630       -1.66400
H          0.24120       -2.43510       -2.04840
H         -1.37880       -2.33250       -1.32740
H          0.03660       -1.75370       -0.41390
