34
astex_1of1_06.xyz
O          4.59620        0.67400       -1.00640
C          3.45900        1.19180       -0.30940
C          2.59920        0.07550        0.25050
C          2.15600       -0.89310       -0.86240
O          3.10220       -1.89770       -1.16810
C          0.85440       -1.51340       -0.36030
C          0.21360       -0.40120        0.45820
N         -1.08400        0.08260        0.08740
C         -1.17120        0.88250       -1.04350
O         -0.20300        1.22330       -1.70320
N         -2.46220        1.26220       -1.34860
C         -3.65410        0.90080       -0.71500
O         -4.72940        1.31330       -1.12300
C         -3.46980        0.01750        0.42580
C         -2.21000       -0.34370        0.75800
C         -4.68260       -0.43980        1.16560
C          1.30020        0.57470        0.84890
C          0.62440       -0.27290        1.89720
H          5.22370        0.37310       -0.34200
H          2.88380        1.74820       -1.04900
H          3.76810        1.88760        0.47470
H          3.17620       -0.49540        0.98630
H          1.92360       -0.28860       -1.74460
H          3.86650       -1.42330       -1.51780
H          0.20810       -1.82520       -1.17820
H          1.08010       -2.38860        0.25220
H         -2.55190        1.85470       -2.16310
H         -2.00470       -0.99800        1.59400
H         -4.41080       -1.09300        1.99200
H         -5.35700       -0.97480        0.49870
H         -5.23590        0.41340        1.55540
H          1.07370        1.63160        0.84530
H         -0.05780        0.23790        2.56200
H          1.17550       -1.09610        2.33080
