43
astex_1meh_08.xyz
C         -3.67760        1.90180        1.35740
O         -3.83820        1.96540        2.55850
C         -2.74230        1.06520        0.62000
C         -2.87350        1.30600       -0.73470
C         -3.95040        2.34290       -0.88440
O         -4.38350        2.64600        0.46000
C         -2.07850        0.65130       -1.66630
C         -2.17120        0.92000       -3.13860
C         -1.15360       -0.26190       -1.12780
C         -1.00240       -0.51600        0.24830
C         -1.81520        0.17750        1.14870
O         -1.69860       -0.01420        2.48460
C          0.06720       -1.45090        0.74440
C          1.39390       -0.74680        0.69860
C          2.11140       -0.30490        1.74790
C          3.41500        0.44300        1.57970
C          4.11480        0.36510        0.22470
C          4.80590       -0.95280       -0.07560
O          5.87700       -1.02440       -0.62470
O          4.15270       -2.07630        0.30410
C          1.69720       -0.46320        3.18110
O         -0.29340       -0.92410       -1.97860
C         -0.89930       -2.07270       -2.57290
H         -3.59250        3.26750       -1.33750
H         -4.81550        1.98490       -1.44200
H         -2.96870        0.33710       -3.60240
H         -2.38680        1.97190       -3.32260
H         -1.23610        0.66820       -3.63280
H         -2.36450        0.56420        2.90320
H         -0.18200       -1.78000        1.74930
H          0.10970       -2.33040        0.10190
H          1.75320       -0.55820       -0.30690
H          4.10450        0.10180        2.35730
H          3.21760        1.49390        1.81020
H          3.41490        0.57480       -0.58640
H          4.89150        1.12310        0.16400
H          3.29530       -1.82520        0.68860
H          0.67400       -0.80520        3.29620
H          2.36650       -1.15660        3.69450
H          1.78680        0.49670        3.69280
H         -1.22510       -2.77670       -1.80490
H         -0.14200       -2.53600       -3.19790
H         -1.75800       -1.79210       -3.18410
