22
astex_1n2j_17.xyz
O          2.74930       -0.00270        1.20420
C          2.00940       -0.61840        0.47240
O          1.93810       -1.95980        0.53720
C          1.14340        0.08840       -0.56490
O          1.61820        1.40720       -0.69290
C         -0.36610        0.07450       -0.22710
C         -0.93250       -1.34500       -0.21410
C         -1.08030        0.88170       -1.31000
C         -0.57350        0.72420        1.13590
O         -1.96930        0.71380        1.41580
H          1.29680       -2.27030       -0.11430
H          1.26630       -0.43110       -1.52350
H          2.27310        1.50290        0.01700
H         -0.66890       -1.87930       -1.13130
H         -2.01770       -1.29890       -0.16460
H         -0.59970       -1.91800        0.65140
H         -0.97300        0.39170       -2.27900
H         -2.13910        0.95390       -1.07270
H         -0.66250        1.88280       -1.38320
H         -0.18070        1.74260        1.10940
H         -0.02580        0.16130        1.90010
H         -2.10520        1.19860        2.23420
