43
astex_1meh_03.xyz
C         -1.81500        3.29990       -0.18490
O         -1.16280        4.32290       -0.21680
C         -1.40710        1.96000       -0.57870
C         -2.45530        1.07960       -0.38140
C         -3.59790        1.88700        0.16580
O         -3.10590        3.24260        0.25100
C         -2.32680       -0.26870       -0.68020
C         -3.44030       -1.25350       -0.48180
C         -1.07010       -0.66080       -1.18160
C          0.01920        0.21320       -1.36090
C         -0.16710        1.56760       -1.06090
O          0.84000        2.45390       -1.23740
C          1.37450       -0.26610       -1.81020
C          2.41880        0.01530       -0.75730
C          2.47570       -0.58910        0.44040
C          3.49550       -0.14830        1.45220
C          2.84570        0.54910        2.65220
C          2.23900       -0.41960        3.62910
O          2.70870       -1.49000        3.94120
O          1.09130        0.05660        4.17150
C          1.50850       -1.65600        0.86450
O         -0.88730       -1.99560       -1.48070
C         -1.22290       -2.28410       -2.83690
H         -4.47250        1.88910       -0.48450
H         -3.89920        1.57670        1.16640
H         -4.09310       -1.29810       -1.35550
H         -4.05570       -0.97080        0.37140
H         -3.04300       -2.25060       -0.31010
H          0.48990        3.32400       -0.96740
H          1.64900        0.24860       -2.73190
H          1.31890       -1.33190       -2.02600
H          3.13180        0.80170       -0.97210
H          4.19250        0.54350        0.98020
H          4.06640       -1.00200        1.82330
H          3.60500        1.09680        3.21500
H          2.09620        1.26940        2.32960
H          0.81440       -0.61750        4.81110
H          2.02370       -2.44270        1.41590
H          0.98650       -2.09930        0.02000
H          0.74600       -1.24450        1.53220
H         -0.59020       -1.71510       -3.52080
H         -2.26890       -2.04580       -3.03820
H         -1.05600       -3.34760       -2.98100
