34
astex_1of1_07.xyz
O          2.84160        2.38650       -0.56690
C          3.07890        1.03110       -0.88600
C          2.79740        0.06000        0.27420
C          2.53440       -1.32930       -0.31810
O          2.90030       -2.31330        0.64860
C          1.02570       -1.33600       -0.63580
C          0.41090       -0.38960        0.37370
N         -0.86960        0.18780        0.07760
C         -0.92320        1.27670       -0.77320
O          0.06490        1.80630       -1.26740
N         -2.20120        1.72300       -1.02190
C         -3.41610        1.20100       -0.56510
O         -4.47660        1.71120       -0.89110
C         -3.26740        0.04020        0.29790
C         -2.01770       -0.39940        0.56720
C         -4.50280       -0.59640        0.84170
C          1.51410        0.43680        0.97150
C          0.79490       -0.58760        1.81480
H          1.90140        2.52370       -0.74250
H          2.47240        0.74030       -1.74750
H          4.12700        0.94040       -1.17220
H          3.64690        0.02010        0.95590
H          3.12260       -1.47550       -1.22880
H          2.80000       -3.17660        0.23430
H          0.61560       -2.34680       -0.58670
H          0.84950       -0.94240       -1.63820
H         -2.26250        2.52510       -1.63490
H         -1.83460       -1.25250        1.20590
H         -5.07480        0.12180        1.42720
H         -5.14900       -0.92820        0.03050
H         -4.25630       -1.44950        1.47000
H          1.34070        1.47480        1.20690
H          1.29830       -1.50440        2.07820
H          0.11410       -0.17970        2.54860
