43
astex_1meh_09.xyz
C         -2.96940        3.13170        0.77380
O         -2.55380        3.93680        1.56170
C         -2.28060        2.05090        0.03890
C         -3.20670        1.38860       -0.75140
C         -4.53630        2.04640       -0.54220
O         -4.29870        3.09510        0.40060
C         -2.87840        0.30440       -1.55490
C         -3.89830       -0.40640       -2.39340
C         -1.52980       -0.07530       -1.53710
C         -0.55780        0.59080       -0.77010
C         -0.94260        1.66140        0.05200
O         -0.05220        2.33630        0.82070
C          0.89460        0.19370       -0.83510
C          1.38580       -0.27360        0.50470
C          2.42480        0.20480        1.21690
C          2.75990       -0.41660        2.54730
C          3.93580       -1.38760        2.43660
C          3.56120       -2.62600        1.66720
O          2.45540       -3.11350        1.60910
O          4.63470       -3.17300        1.05150
C          3.33170        1.31770        0.77550
O         -1.12660       -1.12070       -2.34310
C         -1.20190       -2.37160       -1.66090
H         -4.93590        2.48580       -1.45780
H         -5.28150        1.36650       -0.12650
H         -4.48220       -1.10880       -1.79570
H         -4.59650        0.30420       -2.83490
H         -3.41630       -0.96080       -3.19410
H          0.69550        1.73920        0.98740
H          1.00180       -0.59970       -1.57400
H          1.47700        1.04440       -1.19170
H          0.81600       -1.08200        0.95170
H          1.89850       -0.95670        2.93670
H          3.01900        0.36480        3.26420
H          4.24780       -1.72070        3.42910
H          4.80660       -0.92950        1.97230
H          4.30570       -3.97880        0.62450
H          3.28410        2.14700        1.48470
H          4.36930        0.98130        0.75640
H          3.09230        1.70140       -0.21190
H         -0.91270       -3.13640       -2.37590
H         -2.21780       -2.56230       -1.31010
H         -0.52110       -2.39310       -0.80700
