43
astex_1meh_29.xyz
C         -3.06240        2.79960        0.59140
O         -2.90260        3.50720        1.54800
C         -2.52680        1.45740        0.28230
C         -2.99230        1.06740       -0.96370
C         -3.86710        2.16610       -1.48590
O         -3.84980        3.17920       -0.47670
C         -2.65090       -0.14300       -1.55370
C         -3.16250       -0.54910       -2.90330
C         -1.80380       -0.96480       -0.79830
C         -1.32230       -0.60640        0.47260
C         -1.68630        0.63060        1.02390
O         -1.24850        1.04000        2.23950
C         -0.46140       -1.54730        1.26430
C          0.89170       -1.04050        1.70210
C          1.65040       -0.03460        1.22410
C          2.98340        0.23630        1.87290
C          4.13900       -0.34950        1.04350
C          5.46090        0.04290        1.66130
O          6.04230        1.06570        1.40910
O          5.95200       -0.81100        2.60120
C          1.32240        0.87970        0.07660
O         -1.45230       -2.19840       -1.30980
C         -0.24930       -2.13230       -2.07260
H         -3.49390        2.59570       -2.41650
H         -4.89860        1.84390       -1.63780
H         -2.57110       -0.09980       -3.70320
H         -3.12260       -1.62900       -3.01880
H         -4.19310       -0.22300       -3.03830
H         -0.47110        0.50760        2.46960
H         -0.34840       -2.47870        0.70860
H         -1.01020       -1.81690        2.17330
H          1.30790       -1.58970        2.54310
H          3.00740       -0.18500        2.87890
H          3.14000        1.31350        1.96320
H          4.12100        0.05670        0.03530
H          4.02790       -1.43320        0.98060
H          5.37640       -1.58160        2.65410
H          2.22730        1.10440       -0.48850
H          0.58210        0.47400       -0.60430
H          0.94300        1.83120        0.45770
H         -0.07750       -3.12690       -2.47400
H          0.59570       -1.84050       -1.44400
H         -0.34640       -1.41790       -2.89250
