34
astex_1of1_11.xyz
O          3.87050        2.14760       -0.03020
C          3.43930        0.98630       -0.72540
C          2.63400        0.03590        0.13900
C          2.18170       -1.20650       -0.65480
O          3.11670       -2.27530       -0.63800
C          0.87350       -1.65230       -0.00250
C          0.25050       -0.36420        0.51240
N         -1.04810        0.01790        0.04010
C         -1.13940        0.44420       -1.27670
O         -0.17710        0.52620       -2.02320
N         -2.42330        0.76810       -1.66200
C         -3.60870        0.66430       -0.92880
O         -4.67990        0.98090       -1.42410
C         -3.42330        0.15500        0.42090
C         -2.16780       -0.14230        0.82630
C         -4.63020       -0.00990        1.28350
C          1.34830        0.66660        0.62880
C          0.68830        0.11340        1.86640
H          4.42580        1.85580        0.69900
H          2.80840        1.34400       -1.53920
H          4.29010        0.45510       -1.16690
H          3.25200       -0.31080        0.97470
H          1.96240       -0.89300       -1.67880
H          3.75260       -2.12460       -1.34260
H          1.09840       -2.34610        0.81000
H          0.21800       -2.15630       -0.70960
H         -2.51540        1.09420       -2.61470
H         -1.96220       -0.52500        1.81630
H         -5.34160       -0.69050        0.81820
H         -5.14160        0.94320        1.40970
H         -4.35800       -0.39800        2.26270
H          1.13980        1.69670        0.38000
H          1.23740       -0.58660        2.48150
H          0.02900        0.78620        2.39650
