22
astex_1n2j_10.xyz
O          2.77770        0.37850        0.82140
C          2.14220       -0.14190       -0.06310
O          2.52160       -0.09840       -1.36720
C          0.83430       -0.88630        0.10910
O          0.66170       -1.88740       -0.87800
C         -0.35730        0.09620        0.17920
C         -0.18810        1.05490        1.35500
C         -0.51350        0.87430       -1.12380
C         -1.59600       -0.76820        0.41280
O         -2.72560        0.09040        0.53040
H          3.35150        0.40180       -1.38340
H          0.90200       -1.39980        1.06900
H          1.01200       -1.53610       -1.70370
H         -0.01290        0.50820        2.28270
H          0.65080        1.73060        1.20260
H         -1.09590        1.64230        1.47060
H         -0.59080        0.20170       -1.97840
H          0.32810        1.54660       -1.28780
H         -1.42400        1.46740       -1.08090
H         -1.45350       -1.34870        1.33190
H         -1.71330       -1.46340       -0.41910
H         -3.51090       -0.46280        0.52070
