22
astex_1n2j_18.xyz
O          2.13170       -1.95350       -1.05130
C          1.88170       -0.78620       -0.86070
O          2.25560        0.15250       -1.74770
C          1.14450       -0.32720        0.39060
O          1.13140       -1.40090        1.30070
C         -0.29100        0.16180        0.09490
C         -1.10060       -0.94850       -0.56470
C         -0.30460        1.41600       -0.77630
C         -0.89690        0.52300        1.45990
O         -2.23100        1.00370        1.35820
H          1.96220        1.01630       -1.43170
H          1.70330        0.50830        0.83190
H          1.48170       -2.15300        0.79600
H         -0.68380       -1.22000       -1.53520
H         -2.12440       -0.61570       -0.73150
H         -1.11500       -1.84020        0.06060
H         -1.29540        1.86370       -0.72960
H          0.40270        2.16620       -0.40870
H         -0.08990        1.19530       -1.82130
H         -0.31580        1.33580        1.90010
H         -0.83290       -0.33740        2.12500
H         -2.81330        0.24010        1.34080
