22
astex_1n2j_13.xyz
O          1.84940       -2.37930       -0.22780
C          1.66190       -1.26640        0.20860
O          2.05830       -0.90990        1.43680
C          0.99200       -0.18170       -0.63900
O          1.70360        1.04960       -0.58510
C         -0.47280        0.11860       -0.25860
C         -1.18380       -1.16600        0.15500
C         -1.15960        0.71750       -1.48680
C         -0.56330        1.17660        0.84260
O          0.12510        0.84800        2.05320
H          1.63090       -0.05390        1.65320
H          0.99310       -0.59270       -1.65120
H          2.58410        0.89730       -0.94460
H         -2.24690       -0.97200        0.30240
H         -1.08060       -1.93210       -0.61320
H         -0.77670       -1.58460        1.07650
H         -1.22140       -0.02310       -2.28380
H         -0.60390        1.57880       -1.85560
H         -2.17390        1.03730       -1.24560
H         -0.11130        2.10130        0.49720
H         -1.61930        1.36470        1.05370
H         -0.38480        0.17220        2.51210
