43
astex_1meh_23.xyz
C         -2.33280        2.67280        0.97950
O         -1.82690        3.21270        1.92590
C         -2.04400        1.37320        0.34040
C         -2.89110        1.21040       -0.74370
C         -3.77470        2.41830       -0.81440
O         -3.36290        3.25550        0.27040
C         -2.85120        0.09620       -1.57170
C         -3.77850       -0.06550       -2.73900
C         -1.89570       -0.87290       -1.23690
C         -1.03660       -0.75470       -0.12910
C         -1.10630        0.39750        0.67180
O         -0.31800        0.57510        1.76160
C         -0.05900       -1.85130        0.21810
C          1.34520       -1.31690        0.23060
C          2.21560       -1.29850        1.25890
C          3.52120       -0.56500        1.11330
C          3.43410        0.82020        1.75020
C          4.73960        1.57860        1.65870
O          5.77100        1.11740        1.24400
O          4.68960        2.86360        2.09600
C          1.97380       -1.93160        2.59880
O         -1.82210       -2.02100       -1.99900
C         -0.95740       -1.85530       -3.12060
H         -3.65620        2.97360       -1.74590
H         -4.83020        2.17420       -0.68380
H         -3.42070        0.48600       -3.61050
H         -3.86890       -1.11310       -3.01410
H         -4.77000        0.31610       -2.49760
H          0.44230       -0.02230        1.66340
H         -0.32420       -2.27260        1.18890
H         -0.16340       -2.65100       -0.51350
H          1.65800       -0.82840       -0.68880
H          3.78050       -0.45230        0.06140
H          4.33340       -1.11960        1.58440
H          3.16440        0.75090        2.80720
H          2.64720        1.40740        1.26980
H          3.78880        3.06760        2.37440
H          2.13340       -1.21550        3.40660
H          0.97500       -2.34450        2.70970
H          2.69100       -2.74000        2.75070
H         -0.98200       -2.78770       -3.67700
H          0.06500       -1.64950       -2.79500
H         -1.29650       -1.03770       -3.75900
