34
astex_1of1_04.xyz
O          1.43950        1.86220       -0.90320
C          2.60760        1.61040       -0.12110
C          2.56320        0.16980        0.35260
C          2.52420       -0.83150       -0.82770
O          3.20020       -2.05110       -0.52250
C          1.04810       -1.16680       -1.04690
C          0.37840       -0.92780        0.28760
N         -1.03050       -0.66630        0.30220
C         -1.89740       -1.74800        0.37980
O         -1.53030       -2.90560        0.46710
N         -3.22990       -1.37810        0.35730
C         -3.78400       -0.10780        0.19110
O         -4.99680        0.04940        0.17150
C         -2.79710        0.94940        0.04340
C         -1.48710        0.61840        0.09940
C         -3.28430        2.34530       -0.16300
C          1.31270       -0.11380        1.15250
C          1.00160       -1.55140        1.49440
H          1.51980        2.74460       -1.27770
H          2.64540        2.28070        0.74250
H          3.50980        1.76920       -0.71910
H          3.46980       -0.00640        0.93940
H          2.95920       -0.38110       -1.72410
H          4.12890       -1.84170       -0.37960
H          0.93600       -2.19070       -1.40100
H          0.62220       -0.47900       -1.77690
H         -3.88490       -2.14500        0.42710
H         -0.69630        1.34740       -0.01810
H         -3.90080        2.40790       -1.05870
H         -2.44860        3.03530       -0.25960
H         -3.90900        2.66040        0.67170
H          0.91540        0.65400        1.80270
H          0.34030       -1.70600        2.33330
H          1.75490       -2.30630        1.33190
