22
astex_1n2j_15.xyz
O          2.22310        1.30190        1.03200
C          2.09670        0.51400        0.12590
O          2.81990        0.59280       -0.99970
C          1.07950       -0.62180        0.15710
O          1.40730       -1.48420       -0.93180
C         -0.36550       -0.09000        0.07820
C         -1.31890       -1.26760       -0.12950
C         -0.51630        0.90520       -1.06860
C         -0.71920        0.57500        1.41590
O         -2.06140        1.04940        1.42990
H          2.56100       -0.17480       -1.53890
H          1.21340       -1.14680        1.10750
H          0.69010       -2.11530       -1.04420
H         -2.34050       -0.92430        0.01810
H         -1.25690       -1.67260       -1.14120
H         -1.12570       -2.06800        0.58830
H          0.06600        1.81030       -0.89020
H         -1.56250        1.18520       -1.18100
H         -0.18450        0.46630       -2.00920
H         -0.64520       -0.16870        2.21150
H         -0.01220        1.37210        1.63800
H         -2.04830        1.96190        1.13200
