43
astex_1meh_21.xyz
C         -3.57900        1.60520        1.52950
O         -3.69970        1.56560        2.73640
C         -2.70080        0.80690        0.68730
C         -2.86570        1.17570       -0.63490
C         -3.90670        2.25890       -0.65250
O         -4.28390        2.45380        0.72820
C         -2.12700        0.58030       -1.64840
C         -2.25770        0.98350       -3.08680
C         -1.22120       -0.41150       -1.22760
C         -1.03630       -0.79760        0.11280
C         -1.79340       -0.15960        1.09950
O         -1.64100       -0.47780        2.40690
C          0.01190       -1.80810        0.49190
C          1.34820       -1.12470        0.56290
C          2.06150       -0.86030        1.66840
C          3.38100       -0.13590        1.61040
C          3.85270        0.28290        0.21830
C          5.18150        0.99050        0.32060
O          6.25050        0.46750        0.14210
O          5.11790        2.30070        0.69390
C          1.65420       -1.24100        3.06130
O         -0.41750       -1.02020       -2.16950
C         -1.08500       -2.09480       -2.83040
H         -3.52980        3.20820       -1.03370
H         -4.80270        1.98350       -1.20840
H         -1.34440        0.75780       -3.63180
H         -2.45450        2.05180       -3.16880
H         -3.08180        0.46140       -3.57610
H         -2.27020        0.08200        2.90030
H         -0.25910       -2.26500        1.43970
H          0.05180       -2.59270       -0.26310
H          1.72540       -0.79850       -0.39870
H          3.31470        0.74460        2.25830
H          4.14970       -0.77030        2.06200
H          3.10970        0.92960       -0.25220
H          3.99430       -0.59150       -0.41150
H          4.19200        2.55620        0.77170
H          0.66900       -1.69270        3.10920
H          2.38110       -1.93280        3.49150
H          1.64190       -0.35640        3.70070
H         -0.37690       -2.51340       -3.53930
H         -1.96940       -1.74080       -3.36200
H         -1.38530       -2.86110       -2.11310
