22
astex_1n2j_11.xyz
O          2.24950        0.85790       -1.54640
C          1.92630       -0.09580       -0.87980
O          2.19860       -1.37540       -1.24350
C          1.15040       -0.04140        0.41950
O          1.41430       -1.16000        1.24530
C         -0.36040        0.14980        0.15000
C         -0.92710       -0.99550       -0.68200
C         -0.60600        1.48450       -0.54730
C         -1.03530        0.16360        1.52990
O         -2.43820        0.37200        1.46320
H          2.67500       -1.31570       -2.08540
H          1.51070        0.83870        0.95460
H          1.54170       -1.91970        0.66700
H         -0.67380       -1.96150       -0.24510
H         -0.55400       -0.96940       -1.70590
H         -2.01220       -0.91710       -0.70960
H         -1.67370        1.62080       -0.71800
H         -0.23850        2.31760        0.05530
H         -0.11070        1.53210       -1.51420
H         -0.55440        0.92370        2.15610
H         -0.89690       -0.80020        2.01090
H         -2.58540        1.29130        1.22550
