34
astex_1of1_10.xyz
O          4.23690        1.70950       -0.47070
C          2.99960        1.65620        0.20260
C          2.46980        0.23230        0.30620
C          2.10610       -0.33750       -1.08280
O          3.23610       -0.75260       -1.84050
C          1.04830       -1.41640       -0.81640
C          0.29840       -0.89040        0.40840
N         -1.12430       -0.68250        0.31760
C         -1.93550       -1.81570        0.34910
O         -1.49400       -2.93790        0.45390
N         -3.28810       -1.53980        0.25800
C         -3.90730       -0.29030        0.07700
O         -5.12030       -0.20940        0.00540
C         -2.97910        0.83820       -0.01790
C         -1.65720        0.57730        0.09880
C         -3.56910        2.20390       -0.23700
C          1.17640        0.11980        1.09670
C          0.88220       -1.19320        1.76220
H          4.14940        1.14560       -1.25200
H          3.15580        2.07140        1.20330
H          2.23840        2.27710       -0.29810
H          3.24920       -0.40420        0.73890
H          1.65140        0.45870       -1.67470
H          3.67970       -1.44840       -1.33400
H          0.40070       -1.57480       -1.68300
H          1.53140       -2.36800       -0.57920
H         -3.90530       -2.33740        0.30080
H         -0.90910        1.36380        0.01820
H         -4.27800        2.44460        0.56580
H         -4.15090        2.22360       -1.16800
H         -2.80580        2.98940       -0.28160
H          0.74710        1.02700        1.51760
H          1.67250       -1.94360        1.80130
H          0.19450       -1.19610        2.60260
