43
astex_1meh_25.xyz
C         -3.86080        2.64130        0.94210
O         -3.78520        3.44430        1.83130
C         -2.81100        1.88320        0.23140
C         -3.41070        1.07570       -0.72100
C         -4.88940        1.30460       -0.64480
O         -5.07300        2.26930        0.39430
C         -2.69270        0.23380       -1.56020
C         -3.36180       -0.61100       -2.60310
C         -1.30330        0.24750       -1.38220
C         -0.65720        1.07860       -0.44930
C         -1.42550        1.90200        0.38590
O         -0.88580        2.71120        1.33060
C          0.84510        1.06900       -0.34750
C          1.31150        0.16060        0.75290
C          2.16900       -0.86810        0.64580
C          2.54920       -1.64780        1.87570
C          3.96930       -1.32620        2.34100
C          4.06960        0.07650        2.90580
O          3.13980        0.70490        3.34010
O          5.32190        0.60500        2.93570
C          2.82570       -1.29900       -0.63410
O         -0.51260       -0.55560       -2.17910
C         -0.48330       -1.90400       -1.70730
H         -5.29890        1.70920       -1.57200
H         -5.44240        0.40120       -0.38300
H         -3.77720       -1.52480       -2.17430
H         -4.18460       -0.06580       -3.06480
H         -2.65540       -0.89010       -3.38100
H          0.07080        2.58950        1.33620
H          1.25900        0.77860       -1.30820
H          1.20450        2.08720       -0.15820
H          0.91150        0.36800        1.74070
H          1.86270       -1.42010        2.68940
H          2.48600       -2.71870        1.66890
H          4.27290       -2.01040        3.13740
H          4.68540       -1.45420        1.52710
H          5.93620       -0.02740        2.54660
H          2.37790       -0.83800       -1.51030
H          2.75210       -2.38240       -0.74810
H          3.88930       -1.05170       -0.63920
H         -1.48130       -2.34450       -1.71550
H          0.16090       -2.45650       -2.38580
H         -0.07820       -1.94480       -0.69480
