43
astex_1meh_02.xyz
C         -3.94270        2.12250        1.24850
O         -4.31860        2.25060        2.39510
C         -2.97710        1.17140        0.71860
C         -2.82910        1.37110       -0.64130
C         -3.74820        2.49930       -1.01330
O         -4.39100        2.89540        0.21780
C         -1.94620        0.60650       -1.39190
C         -1.74130        0.81960       -2.86210
C         -1.23290       -0.36840       -0.67070
C         -1.36770       -0.58630        0.71300
C         -2.26040        0.21720        1.42870
O         -2.40660        0.06720        2.76630
C         -0.50770       -1.59490        1.42650
C          0.80510       -0.95440        1.77280
C          2.00550       -1.22540        1.23550
C          3.20330       -0.41100        1.63740
C          3.70990        0.44470        0.48140
C          4.89210        1.28810        0.86630
O          5.45180        1.28590        1.93800
O          5.28380        2.08340       -0.16060
C          2.25720       -2.28850        0.20580
O         -0.30570       -1.14030       -1.33950
C         -0.90610       -2.26880       -1.97130
H         -3.22030        3.36690       -1.41000
H         -4.52610        2.20430       -1.71740
H         -0.76400        0.45480       -3.16810
H         -1.80790        1.87870       -3.10860
H         -2.49830        0.29900       -3.45140
H         -3.07230        0.72370        3.04490
H         -0.36340       -2.47050        0.80000
H         -1.02240       -1.90420        2.33640
H          0.74570       -0.15730        2.50780
H          2.95350        0.23630        2.47720
H          4.01230       -1.06470        1.97070
H          2.92340        1.10710        0.11570
H          4.01070       -0.16590       -0.37110
H          6.04390        2.58070        0.17680
H          2.37920       -1.84920       -0.78540
H          1.44710       -3.00950        0.14230
H          3.17550       -2.82880        0.44290
H         -1.41560       -2.89720       -1.23770
H         -0.10240       -2.83010       -2.43940
H         -1.62580       -1.95880       -2.73090
