43
astex_1meh_24.xyz
C         -3.53130        1.99810        1.32860
O         -3.38920        2.26930        2.48930
C         -2.72630        1.14770        0.42700
C         -3.30930        1.15360       -0.83000
C         -4.52540        2.02620       -0.76340
O         -4.58480        2.49470        0.58610
C         -2.78100        0.46170       -1.91200
C         -3.40960        0.50900       -3.27260
C         -1.61510       -0.27050       -1.65060
C         -0.99700       -0.30250       -0.38780
C         -1.55340        0.43540        0.66960
O         -1.00770        0.44600        1.91070
C          0.24730       -1.12150       -0.15220
C          1.39490       -0.26290        0.29730
C          2.10970       -0.37790        1.43370
C          3.23880        0.57580        1.70740
C          4.58980       -0.13130        1.72440
C          5.73220        0.83110        1.96770
O          5.60650        2.01240        2.15430
O          6.96990        0.26580        1.96630
C          1.87650       -1.43510        2.47800
O         -1.02850       -0.97890       -2.68040
C         -1.62320       -2.26490       -2.84250
H         -5.44600        1.48400       -0.98450
H         -4.45880        2.88850       -1.42900
H         -3.78200        1.51020       -3.48750
H         -4.25670       -0.17550       -3.34520
H         -2.68710        0.23810       -4.03820
H         -0.06150        0.24910        1.81290
H          0.51530       -1.61040       -1.08820
H          0.03650       -1.90330        0.57920
H          1.65260        0.54810       -0.37740
H          3.09250        1.06550        2.67250
H          3.26090        1.36280        0.95520
H          4.62380       -0.89760        2.50230
H          4.76070       -0.64110        0.77240
H          6.88170       -0.67950        1.79980
H          1.98160       -1.00650        3.47570
H          0.89060       -1.88830        2.41090
H          2.61190       -2.23700        2.39320
H         -1.12030       -2.74000       -3.67980
H         -1.48980       -2.86850       -1.94200
H         -2.68980       -2.18000       -3.05630
