43
astex_1meh_14.xyz
C         -1.71910        2.91640        0.60450
O         -1.07310        3.50490        1.43120
C         -1.64060        1.51720        0.14770
C         -2.55200        1.32430       -0.87620
C         -3.28750        2.61600       -1.07050
O         -2.70970        3.52910       -0.12900
C         -2.67620        0.11590       -1.55050
C         -3.67690       -0.08560       -2.64900
C         -1.80940       -0.90540       -1.13330
C         -0.89050       -0.75330       -0.07800
C         -0.81600        0.48470        0.57940
O          0.01660        0.70220        1.63210
C          0.03130       -1.87840        0.33430
C          1.45040       -1.39370        0.21760
C          2.36050       -1.23470        1.20020
C          3.60810       -0.44060        0.90260
C          3.39330        1.05790        1.18490
C          3.28230        1.32440        2.67400
O          4.16910        1.02990        3.43980
O          2.14920        1.89400        3.13040
C          2.19090       -1.72390        2.61120
O         -1.88620       -2.13460       -1.75340
C         -1.08750       -2.18300       -2.93420
H         -3.16110        3.02870       -2.07200
H         -4.35410        2.52840       -0.85820
H         -4.61120        0.42280       -2.41360
H         -3.31500        0.31910       -3.59590
H         -3.88490       -1.14310       -2.78860
H          0.68100       -0.00890        1.61730
H         -0.19880       -2.18450        1.35600
H         -0.15710       -2.73660       -0.30810
H          1.71330       -1.00410       -0.76310
H          3.87480       -0.55770       -0.14790
H          4.44690       -0.78500        1.50760
H          4.26720        1.61320        0.84350
H          2.52560        1.42070        0.63390
H          1.49030        1.99150        2.42530
H          3.04130       -2.35470        2.87290
H          2.18930       -0.90320        3.33060
H          1.28400       -2.30650        2.75040
H         -0.03200       -2.03600       -2.69370
H         -1.22890       -3.16850       -3.36800
H         -1.39790       -1.41910       -3.64890
