22
astex_1n2j_19.xyz
O          2.38690       -0.10920       -1.79370
C          2.03480        0.12600       -0.66310
O          2.52470        1.19410        0.00270
C          1.02670       -0.75180        0.06400
O          1.03680       -2.02030       -0.54470
C         -0.40270       -0.15300        0.06530
C         -0.91810       -0.00170       -1.36210
C         -1.28830       -1.12500        0.84400
C         -0.40930        1.20400        0.76430
O         -1.75920        1.60260        0.95290
H          2.18310        1.18270        0.90520
H          1.34560       -0.87080        1.10630
H          1.45350       -1.87760       -1.40860
H         -0.28480        0.66140       -1.95270
H         -1.92290        0.41470       -1.33970
H         -0.95380       -0.97070       -1.85570
H         -1.23970       -2.11200        0.39070
H         -2.31760       -0.77640        0.84140
H         -0.95870       -1.20330        1.88190
H          0.12360        1.94100        0.15840
H          0.09770        1.11540        1.73740
H         -1.75820        2.52970        1.20560
