22
astex_1n2j_01.xyz
O          1.96080        1.08160        1.45540
C          1.89450        0.48240        0.40430
O          2.72480        0.73310       -0.61470
C          0.85600       -0.59960        0.12510
O          1.23330       -1.33440       -1.04720
C         -0.55160       -0.01610       -0.09020
C         -1.53430       -1.18310       -0.13040
C         -0.61130        0.78050       -1.38940
C         -0.92030        0.91440        1.07280
O         -0.65790        0.35120        2.34640
H          2.48440        0.08020       -1.29860
H          0.82260       -1.24900        0.99950
H          1.69890       -2.12800       -0.76540
H         -1.24370       -1.91400       -0.88280
H         -2.53180       -0.81870       -0.37610
H         -1.58050       -1.66890        0.84420
H          0.11900        1.59100       -1.40010
H         -0.43190        0.13920       -2.25030
H         -1.60120        1.22420       -1.50000
H         -1.99300        1.10430        1.01700
H         -0.40790        1.87250        0.96100
H          0.27090        0.55720        2.51970
