34
astex_1of1_13.xyz
O          2.00180        2.27260       -0.27170
C          3.05430        1.43420        0.20560
C          2.50910        0.02580        0.30170
C          2.05400       -0.53430       -1.06050
O          3.10330       -1.07770       -1.84360
C          1.02940       -1.61170       -0.71630
C          0.32380       -1.04960        0.50760
N         -1.07300       -0.74370        0.42660
C         -1.97170       -1.78130        0.63490
O         -1.63300       -2.91300        0.93070
N         -3.29030       -1.39940        0.47800
C         -3.80130       -0.16420        0.07370
O         -5.00640        0.00780       -0.04030
C         -2.78140        0.84000       -0.18460
C         -1.48510        0.50040       -0.00130
C         -3.22220        2.19370       -0.63280
C          1.26460       -0.05770        1.16370
C          0.92510       -1.36290        1.83880
H          2.32840        3.17630       -0.29500
H          3.90850        1.45310       -0.47930
H          3.40130        1.76830        1.18670
H          3.30190       -0.62530        0.68060
H          1.54770        0.27430       -1.59610
H          3.52190       -0.35770       -2.32360
H          0.33260       -1.79880       -1.53040
H          1.54290       -2.54700       -0.48930
H         -3.96880       -2.13200        0.63640
H         -0.67720        1.20120       -0.16940
H         -3.79110        2.12330       -1.55880
H         -2.36620        2.84620       -0.79170
H         -3.88050        2.64590        0.10770
H          0.86580        0.84740        1.59780
H          1.66860       -2.14690        1.87210
H          0.26320       -1.30750        2.69030
