34
astex_1of1_05.xyz
O          2.82690        2.30850       -0.74740
C          3.02680        0.93990       -1.03270
C          2.77840        0.01110        0.16860
C          2.47430       -1.39770       -0.36990
O          2.74980       -2.44190        0.56430
C          0.96210       -1.39610       -0.62820
C          0.39490       -0.40190        0.36450
N         -0.88570        0.18450        0.08810
C         -0.95200        1.25440       -0.78470
O          0.02700        1.76470       -1.31660
N         -2.23190        1.70770       -1.00920
C         -3.43920        1.20710       -0.50990
O         -4.50290        1.72110       -0.81880
C         -3.27830        0.06280        0.37270
C         -2.02600       -0.38240        0.61900
C         -4.50470       -0.55200        0.96010
C          1.52790        0.42630        0.90150
C          0.81880       -0.55980        1.79900
H          1.88250        2.45700       -0.89010
H          4.05940        0.82100       -1.36260
H          2.37790        0.63130       -1.85600
H          3.65550        0.00040        0.82060
H          3.02600       -1.58370       -1.29630
H          3.68220       -2.37800        0.79660
H          0.56020       -2.40330       -0.51690
H          0.75100       -1.04360       -1.63820
H         -2.30220        2.49660       -1.63800
H         -1.83360       -1.22460        1.26930
H         -5.05550        0.18250        1.54570
H         -5.17390       -0.89370        0.17200
H         -4.24940       -1.39500        1.59840
H          1.37700        1.47350        1.11050
H          1.30800       -1.48090        2.07350
H          0.16870       -0.11560        2.53940
