40
omegapdb_2byh_12.xyz
O          5.07700        2.69270        3.55590
C          5.32090        1.90350        2.65520
C          6.74010        1.65480        2.20320
C          4.22520        1.16190        1.96950
C          2.90620        1.38280        2.37440
C          1.84150        0.72420        1.77510
C          2.09270       -0.18640        0.73890
C          3.41230       -0.41390        0.32890
C          4.46690        0.25210        0.93450
N          1.08790       -0.90400        0.08220
C         -0.27710       -0.81910        0.24740
O         -0.82830       -0.03460        1.00710
C         -1.00100       -1.80460       -0.58230
C         -0.56640       -3.10430       -0.90170
N         -1.49530       -3.78980       -1.58740
N         -2.50040       -2.92340       -1.70970
C         -2.28830       -1.71080       -1.12840
C         -3.25890       -0.62420       -1.21100
C         -2.84180        0.70760       -1.11020
C         -3.73780        1.76150       -1.17910
Cl        -3.17460        3.38580       -1.04700
C         -5.10230        1.51770       -1.36040
O         -5.94780        2.57920       -1.42040
C         -5.52810        0.19850       -1.48040
C         -4.62630       -0.85770       -1.41270
O         -5.05290       -2.15960       -1.54540
H          7.00270        0.60450        2.32500
H          6.85590        1.90390        1.14880
H          7.40720        2.26930        2.79870
H          2.72860        2.08770        3.17450
H          0.82750        0.90470        2.08860
H          3.60820       -1.11800       -0.47100
H          5.47430        0.05650        0.59580
H          1.39580       -1.51310       -0.65910
H          0.35130       -3.59430       -0.62090
H         -3.35600       -3.20370       -2.16270
H         -1.79840        0.93200       -0.95900
H         -6.84540        2.24810       -1.53360
H         -6.58180       -0.00880       -1.63460
H         -6.01310       -2.15920       -1.62040
