36
omegapdb_1qxw_10.xyz
C          4.37520        0.06360       -0.34760
C          4.94350       -0.19210        1.02560
C          3.65030        0.55260        0.86640
N          2.45020       -0.13380        1.27180
C          1.20230        0.49940        0.84100
C          0.76540       -0.06090       -0.51630
C         -0.74850        0.07730       -0.74970
N         -1.13610       -0.15380       -2.13970
C         -1.56050       -0.85080        0.15550
C         -2.89270       -0.26000        0.60950
C         -3.87130        0.05740       -0.51410
C         -5.18660        0.60590        0.02300
O          1.47690        0.69950       -1.49060
O          1.10990       -1.41340       -0.61660
H          3.93430       -0.77330       -0.86470
H          4.85470        0.79860       -0.97450
H          5.81410        0.36350        1.33660
H          4.87290       -1.19990        1.40500
H          3.67300        1.62390        1.04340
H          2.44800       -0.23470        2.27860
H          0.43700        0.27570        1.58140
H          1.29120        1.58530        0.75050
H         -0.99710        1.11870       -0.51830
H         -0.85980       -1.09410       -2.40250
H         -0.63030        0.48460       -2.74240
H         -1.73090       -1.78480       -0.38410
H         -0.97540       -1.12230        1.03400
H         -2.69930        0.65320        1.18220
H         -3.36960       -0.95820        1.30330
H         -4.05240       -0.84980       -1.09440
H         -3.42070        0.76520       -1.20850
H         -5.66240       -0.10800        0.69600
H         -5.88780        0.82540       -0.78080
H         -5.02310        1.52710        0.58310
H          1.55620        0.11450       -2.25280
H          1.84930       -1.50160        0.01820
