46
omegacsd_CDBMPI10_11.xyz
O          2.36060        1.92510       -1.47330
C          2.37960        0.98950       -0.67810
N          1.25720        0.57120       -0.00200
C          1.09640       -0.82190        0.43800
C          0.08730       -0.86340        1.58210
N         -1.15790       -0.23170        1.16830
C         -0.93690        1.18990        0.87770
C          0.02900        1.30350       -0.29370
C         -2.14860        2.08730        0.69380
C         -2.19670       -1.06200        0.83860
O         -2.17360       -2.26720        1.08390
C         -3.38300       -0.48050        0.14390
C         -4.55090       -0.20610        0.85520
C         -5.67110        0.28650        0.19100
C         -5.63640        0.48340       -1.18900
C         -4.48200        0.17390       -1.90660
C         -3.35730       -0.30840       -1.24160
C          0.69030       -1.72720       -0.71960
C          3.65850        0.28580       -0.36100
C          4.10090        0.12020        0.95460
C          5.33600       -0.47100        1.20640
C          6.12660       -0.91470        0.14720
C          5.68940       -0.74460       -1.16570
C          4.46540       -0.13290       -1.42070
H          2.05530       -1.15770        0.82540
H          0.48290       -0.32290        2.44450
H         -0.12920       -1.89050        1.86130
H         -0.40360        1.55810        1.76060
H          0.30590        2.34080       -0.46800
H         -0.45450        0.93510       -1.20540
H         -2.87000        1.94500        1.49500
H         -2.65360        1.93570       -0.25540
H         -1.79430        3.11730        0.73250
H         -4.57520       -0.37200        1.92430
H         -6.57100        0.51120        0.74720
H         -6.50770        0.86420       -1.70360
H         -4.45760        0.30650       -2.97960
H         -2.46130       -0.55270       -1.79810
H          1.44320       -1.68370       -1.50630
H         -0.26770       -1.42800       -1.14150
H          0.59260       -2.75730       -0.37990
H          3.48610        0.47540        1.77210
H          5.68150       -0.58370        2.22490
H          7.08190       -1.38150        0.34390
H          6.30590       -1.07950       -1.98860
H          4.12790        0.03500       -2.43440
