44
omegacsd_CUHNEY10_14.xyz
Cl         0.20670       -4.94340       -1.15330
C         -0.57770       -3.43650       -0.85730
C         -0.94050       -2.61880       -1.92650
N         -1.51440       -1.42410       -1.76030
C         -1.78460       -1.03170       -0.51250
N         -2.35940        0.24370       -0.36350
C         -3.31490        0.78490       -1.23440
O         -3.94110        0.20020       -2.08520
C         -3.40570        2.21980       -0.82150
N         -4.19270        3.15560       -1.35020
C         -4.03920        4.35410       -0.76540
C         -3.15310        4.58910        0.29380
N         -2.37490        3.63080        0.82480
C         -2.53050        2.45190        0.22880
C         -1.80720        1.19230        0.58970
O         -0.41340        1.33930        0.37500
C          0.38680        0.75730        1.33680
O         -0.03160        0.37300        2.41440
N          1.67660        0.71770        0.92370
C          2.04100        0.75780       -0.49190
C          2.05380       -0.67380       -1.02820
N          2.91740       -1.57530       -0.27120
C          2.60050       -1.51580        1.15310
C          2.59220       -0.09620        1.72020
C          4.32930       -1.35440       -0.53970
C         -1.48230       -1.79600        0.61780
C         -0.85150       -3.02040        0.44120
H         -0.73860       -2.92950       -2.94350
H         -4.64620        5.16320       -1.15030
H         -3.07330        5.57710        0.72760
H         -1.96750        0.89340        1.62540
H          1.33660        1.37790       -1.03550
H          3.02820        1.21700       -0.56190
H          1.03240       -1.05860       -0.97740
H          2.36370       -0.68940       -2.07450
H          3.31180       -2.14160        1.69460
H          1.60240       -1.93750        1.29550
H          2.25720       -0.08470        2.75330
H          3.57990        0.36280        1.66380
H          4.91240       -2.10340       -0.00570
H          4.70870       -0.36520       -0.25100
H          4.51040       -1.48250       -1.60600
H         -1.71810       -1.43770        1.60900
H         -0.58970       -3.64260        1.28520
