50
omegapdb_1xom_04.xyz
O          6.44110        0.98970       -0.83140
C          5.59080        1.91790       -0.32760
O          5.93400        3.05290       -0.08560
C          4.21400        1.35260       -0.11410
C          3.61040        0.83170       -1.42080
C          2.19890        0.30950       -1.18200
C          2.16250       -0.80100       -0.10900
C          2.82610       -0.28460        1.18610
C          4.23510        0.24080        0.93940
C          2.95720       -1.92690       -0.60230
N          3.61470       -2.81290       -1.00060
C          0.73680       -1.24960        0.15430
C          0.30630       -2.55530       -0.06560
C         -1.01430       -2.92840        0.19350
C         -1.93320       -1.99840        0.67720
O         -3.22810       -2.27120        0.98470
C         -3.63820       -3.62060        0.82420
C         -1.51090       -0.66930        0.88420
C         -0.19330       -0.31700        0.62940
O         -2.36530        0.27130        1.39230
C         -3.38400        0.67520        0.46510
C         -4.32880        1.65080        1.13860
C         -5.06830        2.24220       -0.05790
C         -3.96110        2.45040       -1.11250
C         -2.83910        1.45130       -0.73950
H          7.29260        1.44290       -0.92560
H          3.60910        2.18270        0.25570
H          3.58360        1.62900       -2.16540
H          4.24290        0.03610       -1.81800
H          1.55620        1.12150       -0.83480
H          1.76480       -0.07660       -2.10540
H          2.83400       -1.08760        1.92440
H          2.19680        0.51500        1.58240
H          4.65210        0.61950        1.87400
H          4.88300       -0.56760        0.59600
H          0.99800       -3.29960       -0.43630
H         -1.30920       -3.95250        0.02390
H         -3.04820       -4.28760        1.45410
H         -3.55740       -3.93780       -0.21650
H         -4.67690       -3.65290        1.13410
H          0.08000        0.71180        0.82370
H         -3.93560       -0.20930        0.13970
H         -4.97460        1.17410        1.87290
H         -3.73240        2.41510        1.64180
H         -5.80140        1.52070       -0.42200
H         -5.60340        3.15960        0.17750
H         -4.33250        2.29620       -2.12330
H         -3.58440        3.47070       -1.06410
H         -2.56090        0.79660       -1.56300
H         -1.93940        1.97900       -0.42090
