44
omegacsd_CUHNEY10_08.xyz
Cl        -0.07230       -5.00810       -0.58530
C         -0.84730       -3.46530       -0.56700
C         -0.58150       -2.56940        0.46380
N         -1.13590       -1.35660        0.51490
C         -1.97790       -0.99750       -0.45960
N         -2.47020        0.30680       -0.33610
C         -3.46510        0.89470       -1.11520
O         -4.11540        0.36900       -1.99580
C         -3.55210        2.29580       -0.61110
N         -4.38240        3.24420       -1.04100
C         -4.21130        4.40930       -0.39640
C         -3.26100        4.59880        0.61530
N         -2.43300        3.62820        1.03740
C         -2.61360        2.47870        0.39290
C         -1.84340        1.21610        0.62450
O         -0.48430        1.38510        0.28140
C          0.40170        0.91380        1.23700
O          0.16130        0.89760        2.42540
N          1.56350        0.54020        0.65990
C          2.62020        0.05590        1.54190
C          3.91290        0.04340        0.74330
N          3.87190       -0.85710       -0.41520
C          2.51640       -0.99320       -0.94680
C          1.72780        0.28970       -0.76890
C          4.41060       -2.17060       -0.11050
C         -2.31900       -1.83900       -1.52610
C         -1.73420       -3.09720       -1.57370
H          0.09030       -2.83620        1.26980
H         -4.85350        5.22770       -0.69470
H         -3.16680        5.56210        1.09900
H         -1.91160        0.84310        1.64550
H          2.37920       -0.94280        1.91970
H          2.68970        0.72060        2.40050
H          4.74230       -0.25240        1.38430
H          4.11660        1.06120        0.40430
H          2.56990       -1.25240       -2.00560
H          1.96510       -1.80190       -0.44100
H          0.74650        0.19140       -1.22260
H          2.24530        1.12050       -1.25430
H          4.38120       -2.78710       -1.00830
H          5.44820       -2.08260        0.20610
H          3.84540       -2.69620        0.67510
H         -3.01460       -1.50810       -2.27940
H         -1.95970       -3.78020       -2.38000
