50
omegapdb_1xom_11.xyz
O          6.65500        1.30930       -1.02850
C          5.91910        0.51120       -0.21740
O          6.27280        0.21480        0.90140
C          4.63180        0.10370       -0.88340
C          3.88450       -0.94650       -0.05420
C          2.96580       -0.26640        0.95280
C          1.81590        0.48500        0.23600
C          2.30010        0.96470       -1.16210
C          3.76570        1.36610       -1.10770
C          1.48850        1.67240        1.02930
N          1.24590        2.63740        1.65110
C          0.55280       -0.34030        0.05540
C          0.53950       -1.73000        0.14450
C         -0.63420       -2.44810       -0.09960
C         -1.81590       -1.79000       -0.43860
O         -2.99790       -2.40580       -0.70480
C         -3.00020       -3.82210       -0.62060
C         -1.81640       -0.38200       -0.51310
C         -0.63880        0.31360       -0.27520
O         -2.92030        0.33500       -0.86320
C         -4.10570        0.17380       -0.04200
C         -4.88000        1.46530       -0.22790
C         -4.09540        2.48860        0.61070
C         -3.38010        1.66250        1.71030
C         -3.76190        0.19740        1.43870
H          7.43810        1.55360       -0.51200
H          4.89160       -0.30680       -1.86050
H          3.30450       -1.58520       -0.72070
H          4.60310       -1.57800        0.46560
H          2.54650       -0.97230        1.66840
H          3.55590        0.44470        1.53130
H          1.66810        1.78730       -1.49640
H          2.15920        0.14360       -1.86770
H          3.91040        2.07790       -0.29070
H          4.07480        1.87110       -2.02060
H          1.43130       -2.27950        0.40820
H         -0.61140       -3.52460       -0.02620
H         -2.74560       -4.15850        0.38550
H         -2.30430       -4.26030       -1.33740
H         -4.01120       -4.13190       -0.86200
H         -0.68270        1.39430       -0.33550
H         -4.64020       -0.72020       -0.35490
H         -5.88700        1.32420        0.16800
H         -4.96120        1.73660       -1.27880
H         -3.36370        2.99670       -0.01330
H         -4.74980        3.25050        1.02930
H         -2.30070        1.79060        1.64430
H         -3.67580        1.96940        2.71160
H         -4.66120       -0.08130        1.99110
H         -2.97890       -0.51120        1.70700
