66
omegapdb_1z1r_03.xyz
C          0.41790       -0.24960        0.34300
C          0.48940       -1.14350       -0.90960
C         -0.68650       -2.07380       -0.97620
C         -1.60880       -1.99030       -2.02360
C         -2.75710       -2.77990       -2.03550
C         -3.01640       -3.63440       -0.96420
C         -2.07570       -3.77780        0.05470
C         -0.91760       -3.00700        0.04030
O         -4.19970       -4.32490       -0.86920
C         -5.32430       -3.47200       -0.58960
C         -5.14570       -2.59130        0.64390
C         -4.46170       -1.25910        0.36260
C         -4.24390       -0.44280        1.61630
O         -4.66860       -0.77170        2.71280
N         -3.47870        0.69460        1.46060
C         -3.09210        1.29290        0.20430
C         -1.67160        0.95410       -0.25440
O         -1.25250        1.42060       -1.32620
N         -0.94830        0.21990        0.59260
C         -3.17110        2.82700        0.29290
C         -2.18790        3.31040        1.33800
O         -2.41090        3.17490        2.53750
N         -1.04560        3.86030        0.85620
C          1.38980        0.94640        0.34510
O          1.38660        1.67510       -0.86860
C          2.83650        0.56770        0.61690
N          3.37380       -0.15560       -0.52910
S          4.91620       -0.73910       -0.41020
O          4.96100       -1.51850        0.80940
O          5.22820       -1.30210       -1.70510
C          5.93640        0.69340       -0.16830
C          6.26170        1.09280        1.12650
C          7.01880        2.24910        1.30370
C          7.43490        2.99100        0.19970
C          7.10400        2.57540       -1.09040
C          6.34910        1.42250       -1.28310
H          0.66190       -0.85490        1.21740
H          0.51620       -0.52190       -1.80210
H          1.43010       -1.69050       -0.86770
H         -1.43050       -1.28810       -2.82860
H         -3.47340       -2.70350       -2.84300
H         -2.27840       -4.47530        0.85570
H         -0.19530       -3.12100        0.84060
H         -6.14670       -4.16740       -0.44100
H         -5.55090       -2.86060       -1.46930
H         -4.59420       -3.14480        1.40390
H         -6.12840       -2.39180        1.07210
H         -5.07190       -0.67900       -0.33670
H         -3.49730       -1.39890       -0.12570
H         -3.40380        1.29010        2.28050
H         -3.75390        0.96590       -0.59650
H         -1.44470       -0.09450        1.41500
H         -4.17260        3.11520        0.60440
H         -2.95740        3.23920       -0.68950
H         -0.81020        3.79150       -0.11810
H         -0.32000        4.08830        1.51440
H          1.07070        1.58560        1.17820
H          0.46870        1.64920       -1.21030
H          3.39350        1.49110        0.81000
H          2.91000       -0.07050        1.49570
H          3.23810        0.35510       -1.39690
H          5.94770        0.48760        1.96500
H          7.28720        2.56650        2.30180
H          8.02450        3.88590        0.34270
H          7.43960        3.14580       -1.94530
H          6.10170        1.07110       -2.27510
