36
omegapdb_1qxw_24.xyz
C          4.29660       -0.69630        0.24430
C          4.55390        0.64130       -0.40480
C          3.21530        0.34700        0.20570
N          2.13740        0.10570       -0.71130
C          1.13610       -0.83480       -0.23680
C          0.08720       -0.30580        0.74200
C         -0.78050        0.84620        0.20980
N          0.04400        2.05660        0.12490
C         -1.36460        0.61050       -1.18270
C         -2.32030       -0.56070       -1.42360
C         -3.73990       -0.39270       -0.87440
C         -3.92050       -0.67820        0.61360
O          0.66740        0.20790        1.93010
O         -0.70450       -1.43460        1.04840
H          4.77780       -0.90580        1.18710
H          4.16590       -1.53870       -0.41730
H          4.58430        0.65960       -1.48260
H          5.20470        1.33620        0.10270
H          2.99800        0.84970        1.14240
H          1.68140        0.98950       -0.91710
H          0.59930       -1.25820       -1.08680
H          1.64390       -1.66810        0.25520
H         -1.59200        0.95630        0.94050
H         -0.53890        2.84070       -0.14310
H          0.42790        2.26240        1.03960
H         -1.88680        1.53190       -1.46210
H         -0.52110        0.53410       -1.87210
H         -2.40160       -0.66760       -2.50730
H         -1.88880       -1.48890       -1.05070
H         -4.09360        0.61660       -1.10120
H         -4.39450       -1.07130       -1.42420
H         -3.39880        0.04400        1.23880
H         -3.55210       -1.67430        0.85870
H         -4.97400       -0.63790        0.88830
H          1.24280       -0.48580        2.27510
H         -1.39090       -1.13650        1.65770
