45
omegacsd_FABSOQ10_04.xyz
S         -0.34870        0.37950        0.70150
C         -0.93810        0.63500       -0.89450
C         -0.25130       -0.12470       -1.80120
C          0.75580       -0.92930       -1.20060
C          0.82350       -0.75910        0.15400
C          1.74260       -1.47770        1.12650
O          1.52120       -2.87630        1.10770
C          3.20700       -1.21880        0.80700
C          3.74960        0.04280        1.02440
C          5.07990        0.32890        0.71190
C          5.87740       -0.67830        0.16860
O          7.18060       -0.51730       -0.17710
C          7.76610        0.75130        0.02550
C          5.34120       -1.95630       -0.05080
C          4.01750       -2.21920        0.27310
C         -2.04680        1.63290       -1.14430
O         -1.76500        2.89690       -0.58120
C         -3.38270        1.14900       -0.60060
C         -3.93440        1.70980        0.54320
C         -5.14350        1.23960        1.06460
C         -5.80370        0.19650        0.41720
O         -6.98170       -0.33660        0.83210
C         -7.57570        0.20080        1.99470
C         -5.25370       -0.37140       -0.74300
C         -4.05200        0.10760       -1.23880
H         -0.45510       -0.10590       -2.86990
H          1.40230       -1.61400       -1.74590
H          1.53070       -1.07750        2.12310
H          0.59990       -3.03650        1.35820
H          3.12750        0.82810        1.45450
H          5.47050        1.32330        0.89800
H          7.75120        1.03260        1.08910
H          8.79990        0.66170       -0.31560
H          7.25000        1.52710       -0.55950
H          5.98420       -2.72630       -0.47170
H          3.60530       -3.20920        0.11660
H         -2.14690        1.71990       -2.23850
H         -0.88960        3.17590       -0.88390
H         -3.41730        2.52680        1.03140
H         -5.54810        1.69690        1.96260
H         -7.81100        1.26790        1.86630
H         -6.92090        0.07920        2.87040
H         -8.49930       -0.36230        2.14670
H         -5.78930       -1.18020       -1.23180
H         -3.62940       -0.33310       -2.14250
