46
omegacsd_CDBMPI10_06.xyz
O          1.99870       -0.14150       -2.12740
C          2.14730       -0.27540       -0.91500
N          1.18070       -0.79080       -0.07850
C         -0.08970       -1.27300       -0.63930
C         -1.04410       -0.09660       -0.83090
N         -1.23440        0.59320        0.44350
C          0.00160        1.01630        1.10820
C          0.95830       -0.17400        1.23090
C          0.62800        2.19310        0.37260
C         -2.33060        0.37030        1.24260
O         -2.30590        0.50470        2.46470
C         -3.60720        0.01390        0.55160
C         -4.06570        0.72130       -0.56340
C         -5.30080        0.41130       -1.12630
C         -6.07530       -0.61630       -0.58980
C         -5.62140       -1.31890        0.52580
C         -4.39780       -0.99550        1.10460
C          0.04180       -2.13700       -1.88160
C          3.45250        0.06760       -0.27210
C          4.02730       -0.73890        0.71440
C          5.27780       -0.41760        1.23510
C          5.95260        0.71630        0.78460
C          5.38260        1.51760       -0.20440
C          4.14180        1.18780       -0.74090
H         -0.51260       -1.89300        0.15840
H         -0.63260        0.58620       -1.57600
H         -2.00370       -0.45870       -1.18860
H         -0.29150        1.31800        2.11180
H          0.52180       -0.92310        1.89460
H          1.90410        0.15640        1.65160
H         -0.07130        3.02700        0.34870
H          1.53410        2.51450        0.88600
H          0.89680        1.94440       -0.65290
H         -3.46270        1.52200       -0.97220
H         -5.65880        0.97080       -1.97970
H         -7.03070       -0.86160       -1.03290
H         -6.22530       -2.10990        0.94900
H         -4.04670       -1.50770        1.98990
H          0.85730       -2.84850       -1.76210
H         -0.88370       -2.69760       -2.01100
H          0.23420       -1.54610       -2.76980
H          3.50060       -1.62200        1.05200
H          5.72630       -1.05120        1.98800
H          6.92050        0.96880        1.19530
H          5.90870        2.39260       -0.56070
H          3.69730        1.78100       -1.52830
