25
omegapdb_1m5f_13.xyz
O         -1.85710       -3.21030       -1.95960
C         -1.01710       -2.60220       -1.10090
O          0.02990       -3.09720       -0.76400
C         -1.50030       -1.28780       -0.60420
N         -2.72180       -0.89330       -0.95990
O         -2.92060        0.30760       -0.33790
C         -1.82100        0.62690        0.38780
C         -0.87340       -0.35750        0.25700
C          0.49840       -0.38100        0.84330
C          1.42340        0.57200        0.09000
N          1.56030        0.15010       -1.29760
C          2.78470        0.59330        0.75250
O          3.03290        0.19750        1.86620
O          3.70950        1.17250       -0.04810
C         -1.86740        1.90180        1.14080
H         -2.63790       -2.64150       -2.05980
H          0.46870       -0.08850        1.89220
H          0.90390       -1.38750        0.78060
H          1.03480        1.59690        0.20100
H          2.19990        0.76490       -1.78480
H          0.66250        0.22630       -1.76070
H          4.53830        1.15540        0.45390
H         -1.04330        1.93480        1.84960
H         -1.78380        2.75880        0.47350
H         -2.80350        1.98830        1.68910
