66
omegapdb_1z1r_23.xyz
C          0.64330       -0.13670        0.50120
C          0.80970       -1.63690        0.90040
C         -0.43500       -2.43580        0.62900
C         -1.40350       -2.58570        1.62940
C         -2.68170       -3.05290        1.33540
C         -3.01240       -3.38260        0.02100
C         -2.02260       -3.34390       -0.96680
C         -0.75310       -2.86170       -0.66430
O         -4.29830       -3.78100       -0.22210
C         -4.92250       -3.25030       -1.39300
C         -5.56200       -1.88630       -1.18170
C         -4.59940       -0.72980       -0.90640
C         -4.39300       -0.48620        0.58080
O         -5.04830       -1.06950        1.43370
N         -3.41440        0.40500        0.93950
C         -2.80350        1.43490        0.12570
C         -1.26750        1.41080        0.22090
O         -0.60290        2.44220        0.11560
N         -0.76630        0.17660        0.37530
C         -3.28820        2.83570        0.49400
C         -2.80820        3.21790        1.88020
O         -2.65990        2.38960        2.77230
N         -2.62070        4.54780        2.08380
C          1.40150        0.23180       -0.77250
O          1.11310       -0.71040       -1.78950
C          2.89970        0.28240       -0.51330
N          3.56180        0.62360       -1.77420
S          5.14560        0.14930       -1.97220
O          5.57590        0.75660       -3.21210
O          5.17370       -1.27940       -1.75030
C          6.01600        0.92240       -0.63440
C          6.45340        2.23790       -0.78460
C          7.08580        2.86130        0.28690
C          7.27060        2.17670        1.48820
C          6.83250        0.86000        1.62010
C          6.19760        0.22220        0.55670
H          1.05550        0.49770        1.29160
H          1.04730       -1.69240        1.96240
H          1.65090       -2.05120        0.34660
H         -1.17500       -2.27550        2.64250
H         -3.45060       -3.10910        2.09220
H         -2.24040       -3.66780       -1.97450
H         -0.01570       -2.76290       -1.44720
H         -4.21440       -3.21210       -2.22270
H         -5.69640       -3.97130       -1.65010
H         -6.12250       -1.67350       -2.09460
H         -6.27380       -1.94900       -0.36010
H         -3.63270       -0.88860       -1.39080
H         -5.00920        0.19060       -1.33150
H         -3.37090        0.60040        1.93450
H         -3.04830        1.24260       -0.91870
H         -1.43620       -0.56290        0.53790
H         -4.37910        2.85290        0.49160
H         -2.92990        3.55340       -0.24080
H         -2.47450        5.15160        1.29630
H         -2.20190        4.81230        2.95940
H          1.06670        1.23110       -1.06680
H          1.78920       -0.57320       -2.46800
H          3.25880       -0.70380       -0.22210
H          3.13100        0.99860        0.28000
H          3.46830        1.59960       -2.03800
H          6.32230        2.74190       -1.73200
H          7.43980        3.87750        0.18300
H          7.76460        2.66560        2.31620
H          6.98890        0.32750        2.54790
H          5.87160       -0.80570        0.62750
