41
omegacsd_CEJTIU_03.xyz
C         -6.36710       -0.79090       -0.44410
N         -5.71180        0.10210        0.49040
C         -6.42400        1.33710        0.74970
C         -4.32250        0.18570        0.40740
C         -3.55930       -0.81550       -0.21830
C         -2.16920       -0.77070       -0.25860
C         -1.48700        0.30090        0.32120
C         -2.23070        1.31570        0.92860
C         -3.61700        1.26740        0.96660
N         -0.08950        0.43670        0.32930
C          0.81370       -0.41910       -0.19600
O          0.60830       -1.46990       -0.77880
N          2.16130        0.00740       -0.01940
C          2.64940        1.12820        0.58660
O          1.95030        1.99370        1.10620
C          4.16680        1.26460        0.58920
C          4.92880        0.14260       -0.04910
C          5.21560        0.16550       -1.41760
C          5.87540       -0.90100       -2.02350
C          6.25490       -2.00750       -1.26590
C          5.97460       -2.04080        0.09880
C          5.31430       -0.97270        0.70110
H         -7.44010       -0.73770       -0.28030
H         -6.15750       -0.54050       -1.49210
H         -6.06010       -1.82000       -0.27030
H         -6.15840        1.73570        1.72660
H         -6.22650        2.11020       -0.00420
H         -7.49010        1.12690        0.76220
H         -4.04410       -1.65890       -0.68460
H         -1.61500       -1.55720       -0.74300
H         -1.71770        2.16070        1.37150
H         -4.14160        2.08080        1.44270
H          0.31690        1.25810        0.77340
H          2.82540       -0.64340       -0.41510
H          4.44980        1.38760        1.63510
H          4.37900        2.21400        0.09620
H          4.92120        1.02450       -2.00810
H          6.09210       -0.86820       -3.08230
H          6.76650       -2.83620       -1.73510
H          6.26840       -2.89540        0.69240
H          5.09630       -1.00040        1.76170
