34
omegapdb_2f7p_09.xyz
C         -1.21540       -0.22930       -0.42760
N          0.14050        0.24980       -0.27650
C          1.14060       -0.73740       -0.69660
C          2.51660       -0.20480       -0.42520
C          3.28490       -0.71370        0.62260
C          4.54760       -0.19020        0.89690
C          5.05070        0.85250        0.12280
C          4.28720        1.37100       -0.92340
C          3.02670        0.84640       -1.19200
C         -1.67330       -1.31670        0.57150
O         -1.11100       -1.01880        1.83310
C         -3.22610       -1.18230        0.61040
O         -3.65290       -1.07120        1.95710
C         -3.54190        0.11100       -0.18040
O         -4.63530        0.76600        0.44600
C         -2.23260        0.87510       -0.17230
S         -2.21780        2.20860       -1.39560
H         -1.34200       -0.59060       -1.45340
H          0.28300        0.42820        0.71550
H          1.02040       -1.70270       -0.18920
H          1.00370       -0.90660       -1.76710
H          2.88940       -1.52270        1.22440
H          5.13460       -0.59410        1.71040
H          6.03070        1.25900        0.33160
H          4.67530        2.18030       -1.52700
H          2.42710        1.25000       -1.99810
H         -1.36910       -2.31800        0.26250
H         -1.87320       -0.98370        2.43530
H         -3.70790       -2.04470        0.15050
H         -4.27310       -0.32530        1.96590
H         -3.79640       -0.14800       -1.21250
H         -4.62260        1.69090        0.17610
H         -2.06640        1.28130        0.82810
H         -0.90240        2.43050       -1.26820
