50
omegapdb_1xom_16.xyz
O          6.05840        0.34600        0.59090
C          5.94660        0.40050       -0.76220
O          6.87560        0.69600       -1.47800
C          4.54810        0.09880       -1.22410
C          3.90690       -1.10760       -0.50880
C          3.07380       -0.67320        0.69170
C          1.86370        0.19360        0.25730
C          2.21340        0.95930       -1.05030
C          3.67970        1.36290       -1.05020
C          1.62850        1.19310        1.30280
N          1.45340        2.01860        2.11840
C          0.58130       -0.59160        0.03760
C          0.57400       -1.95610       -0.22290
C         -0.62880       -2.61830       -0.49560
C         -1.83540       -1.92660       -0.50570
O         -3.05150       -2.47560       -0.74540
C         -3.06330       -3.86890       -1.00470
C         -1.83780       -0.53790       -0.23930
C         -0.63460        0.10790        0.02310
O         -3.05140        0.05900       -0.26360
C         -3.09710        1.45290        0.08480
C         -2.84180        1.65760        1.59270
C         -4.22730        1.92110        2.21920
C         -5.22480        1.44040        1.16300
C         -4.54400        1.87060       -0.13370
H          6.97600        0.59180        0.78440
H          4.63370       -0.11430       -2.28840
H          4.67650       -1.81030       -0.19020
H          3.27620       -1.63460       -1.22520
H          3.70690       -0.09410        1.36210
H          2.71460       -1.52980        1.26080
H          1.55350        1.82150       -1.14590
H          2.00400        0.29810       -1.89390
H          3.91610        1.86110       -0.10720
H          3.89840        2.06880       -1.85040
H          1.48790       -2.53160       -0.21080
H         -0.60940       -3.67960       -0.68960
H         -2.48030       -4.11120       -1.89480
H         -2.67650       -4.43340       -0.15460
H         -4.10260       -4.13070       -1.17040
H         -0.63320        1.16300        0.25440
H         -2.39960        1.99650       -0.55580
H         -2.38600        0.75630        2.00000
H         -2.14530        2.47510        1.77610
H         -4.34730        1.42730        3.18120
H         -4.36380        2.99120        2.38100
H         -5.30700        0.35320        1.18310
H         -6.21980        1.86270        1.29020
H         -4.95230        1.42320       -1.03730
H         -4.58620        2.95770       -0.22970
