40
omegapdb_2byh_01.xyz
O          2.75660        3.76340        2.39710
C          3.30380        2.80150        1.87640
C          4.77000        2.84050        1.51980
C          2.53800        1.56130        1.57160
C          1.18740        1.50460        1.93570
C          0.43420        0.38150        1.64740
C          1.01090       -0.71610        0.98870
C          2.36520       -0.68070        0.64330
C          3.11150        0.45810        0.93400
N          0.16260       -1.77850        0.66240
C          0.33450       -2.67550       -0.37970
O          1.42290       -3.04460       -0.79310
C         -0.95720       -3.11010       -0.95020
C         -1.37920       -4.39750       -1.31600
N         -2.64560       -4.39170       -1.76540
N         -3.00910       -3.10630       -1.70690
C         -2.04610       -2.27630       -1.22980
C         -2.15510       -0.82590       -1.12780
C         -1.03590       -0.03470       -1.41400
C         -1.05130        1.33090       -1.18330
Cl         0.35010        2.29680       -1.49540
C         -2.19670        1.95800       -0.68160
O         -2.25500        3.28340       -0.42110
C         -3.33190        1.18550       -0.44670
C         -3.31550       -0.18670       -0.66860
O         -4.41300       -0.97550       -0.44100
H          4.90710        2.69770        0.44840
H          5.17460        3.80330        1.81430
H          5.30960        2.04300        2.02940
H          0.74870        2.35890        2.43210
H         -0.61630        0.34760        1.91390
H          2.80990       -1.53080        0.15220
H          4.15520        0.47350        0.65300
H         -0.80470       -1.61670        0.90000
H         -0.83320       -5.32250       -1.25220
H         -3.94210       -2.83940       -1.97720
H         -0.14020       -0.49390       -1.80990
H         -1.38580        3.65650       -0.63120
H         -4.22190        1.68000       -0.07820
H         -5.11740       -0.42260       -0.08430
