35
omegacsd_DIAVER_09.xyz
N         -3.69730        1.28140        0.37160
C         -3.96710        0.62780       -0.76500
N         -3.40620       -0.51090       -1.18920
C         -2.45810       -1.03680       -0.41140
C         -2.07100       -0.44680        0.80500
C         -2.75320        0.71590        1.12930
C         -1.01370       -1.01310        1.70210
C          0.40750       -0.64080        1.32710
C          0.73420       -0.28640        0.01500
C          2.04830        0.01500       -0.34080
C          3.05760       -0.02150        0.63980
C          2.72750       -0.36820        1.94360
C          1.41430       -0.68280        2.28890
O          4.36470        0.23290        0.31990
C          4.60620        1.61130        0.03400
O          2.44390        0.34020       -1.60160
C          1.42430        0.34420       -2.59060
N         -1.83550       -2.16200       -0.90190
N         -4.88860        1.20420       -1.60380
H         -2.52510        1.22110        2.06270
H         -1.10160       -2.10490        1.73910
H         -1.20300       -0.67480        2.72270
H         -0.04580       -0.25580       -0.72910
H          3.52210       -0.39110        2.67700
H          1.17500       -0.94970        3.31050
H          4.01900        1.94220       -0.82040
H          4.37020        2.22590        0.90470
H          5.66450        1.69620       -0.19330
H          0.66130        1.09250       -2.37080
H          1.91920        0.59250       -3.52340
H          0.95240       -0.63580       -2.67460
H         -2.36440       -2.64340       -1.61130
H         -1.36690       -2.75550       -0.23890
H         -5.50650        1.85890       -1.15660
H         -5.30870        0.57840       -2.26850
