61
omegapdb_1v2k_14.xyz
N          6.66060        3.37270       -2.33380
C          6.46300        2.17860       -2.90850
C          5.67210        1.16650       -2.38260
C          5.01350        1.36080       -1.15470
C          5.20770        2.61660       -0.55230
C          6.02390        3.55530       -1.16940
N          4.23960        0.36730       -0.60160
C          3.58860        0.55890        0.68000
C          3.42930       -0.77110        1.41270
C          2.85800       -1.88780        0.51060
C          2.50270       -1.34530       -0.87480
C          3.72770       -0.67970       -1.48140
C          1.75100       -2.74300        1.11320
O          1.83860       -3.96810        1.05600
N          0.69600       -2.13000        1.73960
C          0.25930       -0.76350        1.51450
C         -0.93490       -0.75400        0.56060
N         -2.01030       -1.65020        0.99620
C         -1.53680       -3.00610        1.32000
C         -0.35990       -2.97540        2.28350
S         -3.08060       -0.97100        2.07820
O         -3.96460       -2.03960        2.49760
O         -2.40000       -0.15580        3.07490
C         -3.94330        0.14360        1.00200
C         -4.66930       -0.37980       -0.04660
C         -5.38480        0.48760       -0.89620
C         -5.34160        1.89820       -0.65220
C         -4.58680        2.38700        0.43950
C         -3.89320        1.52680        1.26220
C         -6.05560        2.76920       -1.50460
C         -6.78150        2.25400       -2.55390
C         -6.83410        0.86680       -2.80450
C         -6.14550        0.00240       -1.98670
Cl        -7.65800        3.31860       -3.60110
H          6.97210        2.01400       -3.85070
H          5.59700        0.23220       -2.91760
H          4.72130        2.88690        0.37180
H          6.16410        4.52060       -0.69740
H          4.21770        1.20480        1.28720
H          2.62430        1.07390        0.56890
H          2.81140       -0.61930        2.29800
H          4.41170       -1.07890        1.76800
H          3.64300       -2.62500        0.34340
H          2.18850       -2.16440       -1.52270
H          1.68140       -0.62920       -0.83490
H          3.47270       -0.24280       -2.45130
H          4.49490       -1.44160       -1.65740
H          1.06430       -0.16910        1.09820
H         -0.03690       -0.32520        2.46870
H         -0.61830       -1.09930       -0.42670
H         -1.33610        0.25510        0.45330
H         -2.37310       -3.57040        1.72460
H         -1.22290       -3.46240        0.37930
H         -0.67270       -2.56020        3.24350
H          0.04750       -3.97200        2.42560
H         -4.69170       -1.44910       -0.21510
H         -4.56070        3.45360        0.62390
H         -3.32050        1.88350        2.10620
H         -6.03190        3.83660       -1.33120
H         -7.41680        0.50090       -3.63750
H         -6.18170       -1.06370       -2.17090
