44
omegacsd_CUHNEY10_02.xyz
Cl         0.09900       -4.97900       -0.66040
C         -0.69400       -3.44530       -0.65770
C         -0.60990       -2.62370        0.46220
N         -1.18590       -1.42020        0.50830
C         -1.86840       -0.99740       -0.56040
N         -2.38740        0.29610       -0.43220
C         -3.28380        0.91780       -1.29900
O         -3.82860        0.42770       -2.26720
C         -3.42330        2.30130       -0.75830
N         -4.20060        3.26830       -1.24240
C         -4.09900        4.40960       -0.54280
C         -3.26450        4.55880        0.57250
N         -2.48850        3.57010        1.04810
C         -2.59880        2.44490        0.34720
C         -1.85940        1.17130        0.61640
O         -0.47300        1.34170        0.41150
C          0.31800        0.76650        1.39330
O         -0.00690        0.71270        2.55790
N          1.50230        0.35320        0.86630
C          1.65360        0.06490       -0.55830
C          3.12980        0.13220       -0.93380
N          3.99090       -0.70550       -0.11000
C          3.80210       -0.34150        1.28910
C          2.35620       -0.42520        1.75910
C          3.79750       -2.12610       -0.35680
C         -2.02500       -1.76410       -1.72180
C         -1.41910       -3.01230       -1.76360
H         -0.06970       -2.94340        1.34430
H         -4.70360        5.24120       -0.88040
H         -3.22270        5.50420        1.09730
H         -2.02980        0.76640        1.61280
H          1.24340       -0.92660       -0.78330
H          1.09150        0.79650       -1.12920
H          3.24950       -0.15700       -1.97890
H          3.46910        1.16490       -0.82720
H          4.42470       -0.98740        1.90950
H          4.15100        0.68580        1.41490
H          2.01370       -1.46570        1.78130
H          2.24760       -0.02350        2.76280
H          4.50200       -2.68960        0.25360
H          2.78940       -2.50440       -0.14240
H          4.01440       -2.33490       -1.40380
H         -2.60000       -1.38540       -2.55070
H         -1.50340       -3.63760       -2.64080
