45
omegacsd_SEYMIS_12.xyz
O         -4.60390       -2.53260       -0.20160
N         -5.06010       -1.24670       -0.40200
C         -3.99560       -0.45820       -0.31570
C         -2.81960       -1.22580       -0.08250
C         -1.44010       -0.73670        0.16390
O         -1.16780        0.07190        1.03800
N         -0.52110       -1.29140       -0.68700
C          0.85160       -1.02640       -0.68610
C          1.74710       -1.60500       -1.58730
N          2.99470       -1.13430       -1.30840
C          4.18710       -1.52030       -2.04680
C          2.91700       -0.26850       -0.24700
C          1.58330       -0.18210        0.16260
C          4.09370        0.39800        0.29150
O          5.23390        0.25900       -0.11990
O          3.75430        1.20390        1.31680
C          4.85730        1.89060        1.94120
C          5.54810        1.00020        2.94950
C         -3.26580       -2.51640       -0.01700
C         -2.61090       -3.81810        0.25800
C         -4.13780        0.98800       -0.48850
C         -5.33920        1.61700       -0.14390
C         -5.48550        2.98800       -0.32510
C         -4.43660        3.74410       -0.84640
C         -3.23900        3.11990       -1.19030
C         -3.08770        1.74830       -1.01380
H         -0.88500       -1.87380       -1.42350
H          1.58480       -2.30110       -2.39300
H          4.89910       -2.00770       -1.38830
H          3.87840       -2.20390       -2.83240
H          4.66280       -0.64630       -2.47950
H          1.20610        0.41700        0.96840
H          4.39900        2.75190        2.41860
H          5.54770        2.22490        1.17040
H          6.32870        1.56040        3.46270
H          6.00520        0.14810        2.45370
H          4.83620        0.64300        3.69040
H         -2.71370       -4.49510       -0.58940
H         -1.55390       -3.66110        0.45760
H         -3.06250       -4.29560        1.12590
H         -6.14350        1.02350        0.26800
H         -6.41560        3.46790       -0.05320
H         -4.55020        4.81110       -0.98010
H         -2.42170        3.70030       -1.59570
H         -2.15920        1.27000       -1.29340
