25
omegapdb_1m5f_16.xyz
O          0.07740       -2.72800       -0.72940
C         -1.20980       -2.70950       -0.29640
O         -1.87570       -3.70320       -0.14800
C         -1.65460       -1.32150       -0.04210
N         -2.88480       -1.15500        0.44540
O         -3.03460        0.20100        0.57730
C         -1.91130        0.83650        0.17370
C         -0.98430       -0.08630       -0.24230
C          0.39560        0.19030       -0.72710
C          1.43660       -0.00760        0.40340
N          1.24220        0.82280        1.57460
C          2.78100        0.32710       -0.19060
O          3.29640        1.42070       -0.15190
O          3.31930       -0.72550       -0.84300
C         -1.92610        2.31680        0.24570
H          0.28640       -3.66460       -0.87010
H          0.64080       -0.46070       -1.56400
H          0.46080        1.22560       -1.06760
H          1.43010       -1.05740        0.68900
H          1.48910        1.77980        1.34980
H          0.27070        0.80170        1.85900
H          4.14150       -0.39570       -1.23740
H         -2.75280        2.72170       -0.33570
H         -2.03920        2.65550        1.27460
H         -0.99460        2.71520       -0.14700
