24
omegapdb_1gs5_21.xyz
C         -0.27820       -0.59460       -0.28410
C         -1.32150       -1.39550        0.50690
O         -2.49410       -1.43120        0.23210
O         -0.80930       -2.07830        1.54440
C          0.43870        0.45420        0.59430
C          1.93940        0.45130        0.36190
C          2.58060       -0.81090        0.88940
O          1.97490       -1.71090        1.43070
O          3.91300       -0.91210        0.73690
N         -0.77990       -0.03950       -1.51730
C         -1.89580        0.76670       -1.67340
O         -2.40460        0.88570       -2.77520
C         -2.38480        1.56140       -0.48890
H          0.46460       -1.33820       -0.58010
H          0.16210       -1.96780        1.56790
H          0.04310        1.43580        0.35220
H          0.24180        0.27610        1.65070
H          2.16150        0.54090       -0.70510
H          2.41690        1.30090        0.85550
H          4.24450       -0.12040        0.29590
H         -0.64860       -0.60880       -2.34090
H         -1.91490        2.54480       -0.51100
H         -2.19510        1.09340        0.46980
H         -3.45430        1.69690       -0.61260
