45
omegacsd_SEYMIS_03.xyz
O         -4.42990       -1.63990        1.44750
N         -4.90700       -1.25860        0.21290
C         -4.00770       -0.42230       -0.29520
C         -2.91710       -0.25590        0.60820
C         -1.68980        0.56960        0.48680
O         -1.69600        1.78770        0.34560
N         -0.54540       -0.16650        0.58390
C          0.75120        0.35120        0.54570
C          1.12630        1.68900        0.41090
N          2.48950        1.73960        0.42910
C          3.24540        2.97730        0.31210
C          2.99470        0.47280        0.57060
C          1.92120       -0.41610        0.64720
C          4.42340        0.20410        0.62490
O          5.30800        1.03940        0.55780
O          4.65470       -1.11930        0.76290
C          6.04960       -1.47290        0.82390
C          6.11470       -2.97180        0.97560
C         -3.24080       -1.04540        1.67850
C         -2.59120       -1.32810        2.98140
C         -4.22330        0.12380       -1.63840
C         -4.90040       -0.64920       -2.59000
C         -5.13010       -0.14300       -3.86450
C         -4.68310        1.13330       -4.20430
C         -4.00890        1.90250       -3.25820
C         -3.77800        1.40660       -1.97770
H         -0.64340       -1.16820        0.60560
H          0.52640        2.57190        0.30300
H          2.52880        3.78480        0.19570
H          3.84780        3.13840        1.20060
H          3.90540        2.93680       -0.54830
H          2.00840       -1.48320        0.75980
H          6.54050       -1.13170       -0.08600
H          6.50880       -0.95560        1.66460
H          5.64270       -3.46430        0.12880
H          7.15370       -3.29230        1.02650
H          5.61120       -3.28780        1.88620
H         -1.69800       -0.71790        3.08760
H         -2.31110       -2.37800        3.06080
H         -3.27120       -1.09950        3.80030
H         -5.23740       -1.64010       -2.31920
H         -5.65210       -0.74670       -4.59430
H         -4.85860        1.52360       -5.19740
H         -3.66500        2.89550       -3.51390
H         -3.26660        2.00590       -1.23850
