39
omegacsd_GALSEM_01.xyz
S          1.03280       -1.35900        2.78260
O         -0.23650       -0.74410        3.10300
O          1.71030       -2.22190        3.72210
N          2.16120       -0.13150        2.52500
C          1.98280        0.91900        1.64300
O          0.97630        1.01270        0.96210
C          3.12690        1.90410        1.61140
C          2.91800        2.98020        0.56060
C          0.91710       -2.14860        1.21630
C         -0.08170       -1.85920        0.25980
N         -1.11490       -1.00020        0.49990
C         -1.93380       -0.47510       -0.52020
C         -1.87640        0.89190       -0.79730
C         -2.72150        1.42890       -1.76340
C         -3.60160        0.61770       -2.47730
C         -3.64940       -0.74510       -2.19710
C         -2.82900       -1.29250       -1.21470
C         -2.62530        2.88770       -2.09600
F         -2.21230        3.61560       -1.05000
F         -3.80440        3.38710       -2.49490
F         -1.75140        3.10330       -3.09530
C          0.06980       -2.53790       -0.96320
C          1.10960       -3.43010       -1.14590
N          2.03520       -3.73410       -0.21870
C          1.91880       -3.08250        0.93570
H          3.02780       -0.25700        3.02850
H          4.04960        1.34860        1.43150
H          3.21770        2.33880        2.60900
H          2.83710        2.54060       -0.43030
H          3.75160        3.67850        0.56410
H          2.00130        3.53120        0.75260
H         -0.98390       -0.40880        1.31060
H         -1.17140        1.51240       -0.26190
H         -4.24910        1.04910       -3.22620
H         -4.34320       -1.37990       -2.73010
H         -2.89540       -2.34140       -0.95950
H         -0.62140       -2.35550       -1.77190
H          1.20920       -3.93740       -2.09750
H          2.64960       -3.30550        1.70270
