45
omegacsd_SEYMIS_09.xyz
O         -2.06000       -3.00770        1.57610
N         -1.74890       -2.54790        0.31180
C         -1.95040       -1.23700        0.34210
C         -2.40910       -0.82120        1.62350
C         -2.73160        0.51690        2.16830
O         -3.69470        0.70570        2.90330
N         -1.88760        1.53700        1.81760
C         -0.64030        1.41410        1.18670
C         -0.21170        2.20720        0.12480
N          1.02130        1.77940       -0.26270
C          1.76140        2.40270       -1.34770
C          1.38920        0.71240        0.52320
C          0.37280        0.48330        1.45210
C          2.59450       -0.09880        0.39920
O          2.86680       -1.01330        1.15040
O          3.36530        0.26470       -0.65600
C          4.53500       -0.55840       -0.85410
C          4.18010       -1.82560       -1.59880
C         -2.46640       -1.97950        2.34930
C         -2.84350       -2.28680        3.74710
C         -1.73140       -0.44370       -0.86740
C         -0.59830       -0.66780       -1.65680
C         -0.39170        0.09130       -2.80560
C         -1.30800        1.07790       -3.17120
C         -2.44720        1.28990       -2.39350
C         -2.66090        0.53170       -1.24650
H         -2.16450        2.43410        2.18940
H         -0.70400        3.01760       -0.38490
H          1.91800        1.69410       -2.15420
H          2.72430        2.75950       -0.99450
H          1.16730        3.23790       -1.70710
H          0.38980       -0.29550        2.19470
H          4.97720       -0.77940        0.11410
H          5.21050        0.06830       -1.43000
H          5.08200       -2.40460       -1.79350
H          3.71170       -1.58970       -2.55240
H          3.50140       -2.43500       -1.00800
H         -2.00530       -2.72520        4.28660
H         -3.66960       -2.99590        3.76850
H         -3.16040       -1.37030        4.23570
H          0.10430       -1.43540       -1.36070
H          0.48020       -0.09230       -3.42000
H         -1.14590        1.66420       -4.06580
H         -3.17140        2.03840       -2.68610
H         -3.55030        0.68260       -0.64780
