41
omegacsd_CEJTIU_16.xyz
C         -4.61200       -1.32150       -0.65520
N         -3.99050       -0.38620        0.26000
C         -4.89500        0.52310        0.93490
C         -2.73670        0.09970       -0.08260
C         -1.93390       -0.54300       -1.04400
C         -0.64650       -0.09680       -1.32070
C         -0.11910        1.02540       -0.68080
C         -0.92940        1.71780        0.22170
C         -2.20530        1.25690        0.52140
N          1.18710        1.43240       -1.00660
C          2.11270        2.12060       -0.27440
O          3.04170        2.71770       -0.79040
N          1.92890        2.14950        1.12120
C          1.76960        1.12490        2.05490
O          1.87060        1.39750        3.23920
C          1.50290       -0.28450        1.58320
C          2.45740       -0.81950        0.54760
C          3.77660       -0.36660        0.45690
C          4.64080       -0.88850       -0.50300
C          4.20190       -1.88210       -1.37550
C          2.89580       -2.35920       -1.27530
C          2.03180       -1.82950       -0.31990
H         -4.74990       -0.90550       -1.66100
H         -4.01780       -2.22960       -0.73770
H         -5.58380       -1.60180       -0.25830
H         -5.10910        1.42460        0.34760
H         -5.82920        0.00310        1.12740
H         -4.48580        0.82790        1.89590
H         -2.29970       -1.40670       -1.57700
H         -0.04190       -0.62630       -2.04610
H         -0.56650        2.61720        0.69650
H         -2.79150        1.82220        1.22880
H          1.48440        1.30440       -1.96250
H          2.38890        2.94920        1.53750
H          0.48130       -0.34230        1.20260
H          1.54580       -0.88950        2.48880
H          4.13200        0.40450        1.12880
H          5.65340       -0.51540       -0.56960
H          4.87260       -2.28470       -2.12210
H          2.55080       -3.14070       -1.93930
H          1.01670       -2.19870       -0.24250
