25
omegapdb_1m5f_14.xyz
O          0.07190       -2.76770       -0.56900
C         -1.22820       -2.73470       -0.17060
O         -1.90070       -3.72580       -0.03100
C         -1.66980       -1.34360        0.06030
N         -2.87150       -1.16780        0.61590
O         -3.01830        0.19050        0.71500
C         -1.92460        0.81900        0.22570
C         -1.02050       -0.11380       -0.21550
C          0.31960        0.15950       -0.80890
C          1.41010        0.10490        0.27160
N          1.13140        1.08310        1.31280
C          2.76900        0.40230       -0.31760
O          3.56910        1.18740        0.13720
O          3.01090       -0.34060       -1.41950
C         -1.93340        2.30050        0.24870
H          0.26940       -3.70750       -0.70500
H          0.54190       -0.55680       -1.59410
H          0.32350        1.16100       -1.24050
H          1.46540       -0.92750        0.63430
H          2.00780        1.38630        1.72160
H          0.57390        0.66520        2.04530
H          3.90540       -0.09870       -1.70400
H         -2.41560        2.65590        1.15700
H         -2.47670        2.70490       -0.60490
H         -0.90980        2.66400        0.23510
