39
omegacsd_FIBREN_01.xyz
N         -3.72460       -0.76070       -1.48220
C         -2.53060       -0.77630       -2.09270
N         -1.33160       -0.47430       -1.54720
C         -1.26830       -0.10660       -0.26140
C         -2.46270       -0.05620        0.47430
C         -3.60900       -0.39650       -0.21490
O         -4.65290       -0.29970        0.66560
C         -4.05990        0.09350        1.83730
N         -2.76410        0.25400        1.78940
C         -4.95430        0.28540        2.99890
N         -0.07370        0.21910        0.29080
C          1.18620       -0.06110       -0.38850
C          1.42750        0.97620       -1.48500
C          2.60800        0.60910       -2.33540
O          3.08190       -0.49920       -2.44620
O          3.08730        1.68020       -3.00950
C          2.29710       -0.05300        0.62670
C          2.46430        1.04540        1.47800
C          3.49310        1.06160        2.41620
C          4.37090       -0.01750        2.50670
C          4.21400       -1.11060        1.65710
C          3.18080       -1.12860        0.72290
C         -2.50760       -1.16160       -3.53880
H         -4.35780        0.58890        3.85270
H         -5.48010       -0.63880        3.23140
H         -5.69870        1.05010        2.78420
H         -0.05710        0.27630        1.29790
H          1.13270       -1.04260       -0.86230
H          1.57220        1.96860       -1.06090
H          0.55290        1.01050       -2.13710
H          3.81560        1.33810       -3.55030
H          1.78870        1.88960        1.40700
H          3.61130        1.91410        3.07100
H          5.17170       -0.00510        3.23310
H          4.89440       -1.94860        1.72140
H          3.06170       -1.96990        0.05370
H         -1.76580       -1.93950       -3.70790
H         -3.48840       -1.50970       -3.84670
H         -2.22470       -0.30430       -4.14920
