50
omegapdb_1xom_23.xyz
O          6.23710        2.18760        0.10940
C          4.94990        2.29000       -0.31930
O          4.69860        2.91460       -1.31780
C          3.93150        1.55390        0.52980
C          2.50940        1.80200        0.01950
C          2.14580        0.80160       -1.07090
C          2.09680       -0.65490       -0.52490
C          2.99070       -0.76570        0.73950
C          4.26690        0.04130        0.55160
C          2.67150       -1.53830       -1.54100
N          3.16800       -2.24140       -2.33810
C          0.69740       -1.13200       -0.17920
C          0.36150       -2.48270       -0.24590
C         -0.89960       -2.92630        0.15320
C         -1.85080       -2.02750        0.63710
O         -3.09240       -2.37240        1.06980
C         -3.41500       -3.75380        1.01500
C         -1.52870       -0.65670        0.68860
C         -0.26650       -0.23340        0.28670
O         -2.38110        0.28850        1.17640
C         -3.70010        0.38060        0.57980
C         -4.13860        1.81050        0.83660
C         -3.34550        2.63960       -0.19110
C         -2.96590        1.64980       -1.32220
C         -3.62490        0.31730       -0.93660
H          6.25970        1.65240        0.91110
H          4.01640        1.94260        1.54860
H          2.44530        2.81340       -0.37770
H          1.81180        1.73010        0.85360
H          2.89670        0.86920       -1.85850
H          1.18790        1.04240       -1.53060
H          2.42170       -0.39000        1.59200
H          3.20340       -1.81770        0.93010
H          4.97900       -0.18670        1.34630
H          4.73860       -0.25750       -0.38810
H          1.07610       -3.20180       -0.62460
H         -1.12770       -3.97900        0.08740
H         -2.73840       -4.34070        1.63750
H         -3.38220       -4.12660       -0.00960
H         -4.42570       -3.83720        1.39960
H         -0.07440        0.82860        0.34980
H         -4.34790       -0.37260        1.02140
H         -3.95200        2.10530        1.86720
H         -5.21130        1.88120        0.65090
H         -2.44990        3.05220        0.26790
H         -3.93290        3.47680       -0.56260
H         -3.29250        1.99300       -2.30170
H         -1.88490        1.52440       -1.36890
H         -4.64610        0.26180       -1.31820
H         -3.08670       -0.55600       -1.30350
