40
omegapdb_2byh_17.xyz
O          5.88080        0.48120        2.71280
C          4.71760        0.84670        2.63160
C          4.10830        1.74820        3.67700
C          3.85810        0.40570        1.49460
C          2.52960        0.82030        1.35150
C          1.76400        0.39210        0.27420
C          2.30920       -0.48970       -0.66400
C          3.64060       -0.89870       -0.52860
C          4.40860       -0.44880        0.53440
N          1.56630       -0.94860       -1.76480
C          0.22030       -1.24480       -1.83260
O         -0.34090       -1.35870       -2.91360
C         -0.44610       -1.49680       -0.54070
C          0.05310       -2.29050        0.50670
N         -0.84570       -2.43610        1.49280
N         -1.89470       -1.72440        1.07810
C         -1.73770       -1.13580       -0.14070
C         -2.74510       -0.26850       -0.73960
C         -2.38000        0.66830       -1.71370
C         -3.30850        1.50630       -2.30920
Cl        -2.80670        2.64280       -3.50530
C         -4.65560        1.44120       -1.94220
O         -5.53460        2.28000       -2.55030
C         -5.03030        0.52550       -0.96360
C         -4.09580       -0.31370       -0.36670
O         -4.47220       -1.20910        0.60770
H          4.85840        1.96370        4.43080
H          3.24720        1.26870        4.14140
H          3.76440        2.67870        3.22640
H          2.08730        1.49640        2.06920
H          0.74870        0.74320        0.15540
H          4.05900       -1.58210       -1.25640
H          5.43690       -0.76070        0.65080
H          2.02740       -0.97840       -2.66360
H          1.01100       -2.77760        0.57740
H         -2.73680       -1.69410        1.63030
H         -1.35220        0.73970       -2.03280
H         -6.41550        2.10200       -2.20340
H         -6.06970        0.46930       -0.65770
H         -5.42850       -1.16310        0.71240
