57
omegacsd_SPIRIL_22.xyz
C         -1.78290       -1.46250       -1.50510
C         -2.74700       -1.62590       -0.32960
C         -3.44410       -2.98620       -0.42720
O         -2.90120       -4.05100       -0.66110
N         -4.76120       -2.77750       -0.16040
C         -5.02940       -1.41810        0.23970
N         -3.91540       -0.71420       -0.38060
C         -3.75320        0.64480       -0.00100
C         -3.98820        1.11600        1.29670
C         -3.79120        2.46110        1.60530
C         -3.35470        3.35190        0.62770
C         -3.14280        2.89470       -0.67260
C         -3.35730        1.55640       -0.98620
C         -1.99000       -1.61940        1.01750
C         -0.89130       -0.55400        1.08460
N          0.05670       -0.63170       -0.02100
C          0.85620       -1.85220        0.01720
C          2.01760       -1.80490       -0.98100
C          2.79430       -0.53660       -0.83990
C          3.96340       -0.36380       -0.19290
C          4.52520        0.99710       -0.06680
C          3.68270        2.10510        0.10720
C          4.19460        3.39440        0.21010
C          5.56820        3.57350        0.15010
C          6.43740        2.50460        0.00150
C          5.90850        1.22070       -0.09820
F          6.07170        4.81760        0.25470
C          4.75240       -1.48090        0.43080
C         -0.67140       -0.43670       -1.27160
H         -2.36260       -1.21120       -2.39530
H         -1.34030       -2.44630       -1.67700
H         -5.37960       -3.54870        0.02870
H         -5.06100       -1.33820        1.33550
H         -5.96990       -1.04440       -0.16540
H         -4.30960        0.43830        2.07510
H         -3.97120        2.80880        2.61360
H         -3.19650        4.39300        0.87200
H         -2.82880        3.58280       -1.44570
H         -3.23330        1.19580       -1.99800
H         -1.54190       -2.60620        1.15160
H         -2.70200       -1.48280        1.83660
H         -1.33110        0.44510        1.07290
H         -0.33980       -0.65800        2.02140
H          0.27390       -2.76850       -0.15570
H          1.27390       -1.91850        1.02510
H          2.63890       -2.68460       -0.81880
H          1.63090       -1.89040       -1.99850
H          2.33450        0.34440       -1.27140
H          2.61560        1.94470        0.18970
H          3.54980        4.24950        0.35300
H          7.50240        2.68270       -0.03430
H          6.58610        0.38700       -0.22060
H          4.19080       -2.41030        0.46080
H          5.03980       -1.22130        1.45000
H          5.67310       -1.67050       -0.12390
H          0.03050       -0.46720       -2.10590
H         -1.08120        0.57300       -1.24130
