36
omegapdb_1qxw_19.xyz
C          3.14800       -0.22820       -1.53730
C          4.16660        0.78890       -1.08340
C          3.51380       -0.12400       -0.08800
N          2.58020        0.47010        0.83680
C          1.86770       -0.50830        1.66430
C          0.52490       -0.96760        1.09810
C         -0.44380        0.20670        0.81990
N         -0.02250        0.81520       -0.44700
C         -1.88740       -0.27270        0.72100
C         -2.87600        0.84120        0.34400
C         -3.25610        0.86460       -1.13870
C         -4.17890       -0.28890       -1.51450
O          0.68120       -1.72130       -0.07980
O          0.02000       -1.82180        2.10010
H          2.17790        0.14440       -1.82440
H          3.49750       -1.09360       -2.07830
H          3.85030        1.82090       -1.06580
H          5.20530        0.62450       -1.32300
H          4.12540       -0.93140        0.30590
H          3.10030        1.08410        1.45140
H          2.45940       -1.41510        1.82830
H          1.66270       -0.06010        2.63680
H         -0.36940        0.90010        1.66760
H          0.88720        1.24350       -0.29220
H         -0.67100        1.54350       -0.71910
H         -2.15590       -0.70030        1.68490
H         -1.93860       -1.07800       -0.01570
H         -2.45990        1.80810        0.64150
H         -3.79480        0.72520        0.92260
H         -2.35710        0.82010       -1.75540
H         -3.75360        1.80840       -1.36950
H         -5.10960       -0.23410       -0.94960
H         -4.42740       -0.26940       -2.57430
H         -3.71830       -1.25270       -1.30160
H          0.48580       -1.08430       -0.79120
H         -0.53370       -2.45800        1.63300
