66
omegapdb_1z1r_30.xyz
C          0.98480       -1.24780        1.88630
C          0.40280       -2.67260        1.91960
C         -0.91770       -2.79220        1.22810
C         -2.11900       -2.65460        1.93280
C         -3.34290       -2.64090        1.27220
C         -3.39060       -2.77070       -0.11750
C         -2.20280       -2.97280       -0.82890
C         -0.98460       -2.97590       -0.15600
O         -4.62940       -2.74150       -0.69040
C         -4.74300       -2.13040       -1.97750
C         -4.91870       -0.62390       -1.89140
C         -3.81430        0.10420       -1.12800
C         -4.14120        0.25090        0.34860
O         -5.29510        0.20860        0.75820
N         -3.11770        0.54590        1.20330
C         -1.69060        0.41540        1.03700
C         -1.11870        0.18250        2.44370
O         -1.75830        0.57780        3.41460
N          0.16230       -0.27910        2.61520
C         -1.05860        1.72160        0.50920
C         -1.04220        1.78100       -1.00170
O         -0.55840        0.87660       -1.67580
N         -1.56390        2.90300       -1.55330
C          1.35660       -0.73950        0.49450
O          2.06450       -1.79180       -0.17050
C          2.26480        0.48290        0.58340
N          3.53630        0.06880        1.16400
S          4.65360        1.24490        1.47900
O          3.97630        2.25190        2.26830
O          5.83760        0.55660        1.94310
C          5.01550        1.96180       -0.10490
C          4.29690        3.07670       -0.53240
C          4.54910        3.59400       -1.80140
C          5.50200        2.99790       -2.62540
C          6.21660        1.88510       -2.18070
C          5.97540        1.35720       -0.91580
H          1.92070       -1.27730        2.44780
H          0.29920       -2.95210        2.96970
H          1.13770       -3.33890        1.46950
H         -2.09770       -2.53650        3.00960
H         -4.27230       -2.49720        1.80610
H         -2.21380       -3.13170       -1.89690
H         -0.06900       -3.12630       -0.71250
H         -3.88570       -2.38260       -2.60180
H         -5.62440       -2.58140       -2.42940
H         -5.86710       -0.39370       -1.40860
H         -4.96550       -0.25330       -2.91760
H         -2.83650       -0.34980       -1.28380
H         -3.73630        1.12770       -1.50290
H         -3.39720        0.67640        2.16940
H         -1.44810       -0.41210        0.37240
H          0.38370       -0.23240        3.60180
H         -1.59030        2.55840        0.95980
H         -0.01700        1.78630        0.82100
H         -1.56070        2.99430       -2.55440
H         -1.99130        3.61520       -0.99230
H          0.47340       -0.47600       -0.08380
H          2.01050       -1.60900       -1.11550
H          2.38220        0.91440       -0.41790
H          1.83810        1.23450        1.24330
H          3.95570       -0.71840        0.67870
H          3.58130        3.53640        0.13440
H          4.00620        4.46430       -2.14330
H          5.69610        3.40520       -3.60790
H          6.96610        1.43390       -2.81610
H          6.53480        0.51050       -0.54290
