45
omegacsd_SEYMIS_04.xyz
O         -2.06850       -1.10470        2.96870
N         -2.02540        0.08430        2.26630
C         -2.06790       -0.25000        0.98340
C         -2.15140       -1.66180        0.82700
C         -2.17750       -2.51480       -0.38260
O         -2.91490       -3.49000       -0.47680
N         -1.31660       -2.16700       -1.38900
C         -0.28580       -1.21730       -1.32430
C         -0.03220       -0.25860       -2.30400
N          1.01220        0.50790       -1.89140
C          1.55430        1.61510       -2.66210
C          1.42420        0.07560       -0.65500
C          0.63890       -1.01990       -0.28900
C          2.48720        0.73900        0.08400
O          3.13380        1.69480       -0.31070
O          2.65620        0.15840        1.29000
C          3.70280        0.73300        2.09920
C          5.05450        0.17840        1.70980
C         -2.15860       -2.14050        2.10810
C         -2.21990       -3.50260        2.68390
C         -2.06390        0.79260       -0.04260
C         -2.94070        0.70890       -1.13040
C         -2.92680        1.69340       -2.11370
C         -2.04140        2.76760       -2.01680
C         -1.18180        2.86280       -0.92190
C         -1.18960        1.87940        0.06360
H         -1.39590       -2.75190       -2.20820
H         -0.53500       -0.06090       -3.23510
H          0.95940        1.70360       -3.56670
H          2.59430        1.42840       -2.91330
H          1.49500        2.53420       -2.08890
H          0.73220       -1.56980        0.63090
H          3.67460        1.81510        1.99570
H          3.43550        0.45760        3.11530
H          5.05500       -0.90710        1.78170
H          5.30570        0.46860        0.69310
H          5.82000        0.56880        2.37910
H         -3.08390       -3.59710        3.33990
H         -2.31770       -4.22150        1.87570
H         -1.32590       -3.71930        3.26670
H         -3.63530       -0.11920       -1.19410
H         -3.61030        1.62810       -2.94970
H         -2.03430        3.53440       -2.77990
H         -0.50930        3.70590       -0.83280
H         -0.52580        1.93800        0.91580
