41
omegacsd_CEJTIU_09.xyz
C         -3.53200       -0.16600        1.94780
N         -2.30390       -0.80570        1.51930
C         -2.21930       -2.21900        1.83530
C         -1.78690       -0.41020        0.28690
C         -2.20840        0.77550       -0.34240
C         -1.64300        1.19640       -1.54100
C         -0.66370        0.43380       -2.16890
C         -0.25170       -0.75720       -1.57090
C         -0.79800       -1.17180       -0.36380
N         -0.12150        0.84840       -3.41250
C          1.20050        0.89240       -3.72830
O          1.64360        0.85010       -4.86260
N          2.06170        0.96130       -2.60820
C          1.91540        1.82070       -1.52970
O          1.00380        2.61790       -1.41670
C          2.94020        1.60060       -0.43710
C          2.34260        0.64860        0.57100
C          2.80350       -0.66440        0.68240
C          2.24570       -1.53270        1.61970
C          1.21460       -1.09430        2.44840
C          0.73290        0.20910        2.32550
C          1.29190        1.07450        1.39000
H         -3.81640       -0.57400        2.91420
H         -3.38060        0.90420        2.07330
H         -4.36120       -0.31770        1.24460
H         -2.72880       -2.84940        1.09550
H         -2.67430       -2.38500        2.80870
H         -1.18070       -2.53450        1.90010
H         -2.97200        1.39270        0.10440
H         -1.95090        2.13240       -1.98630
H          0.49450       -1.37040       -2.05820
H         -0.44580       -2.09680        0.06420
H         -0.72510        0.86900       -4.22000
H          2.99420        0.63730       -2.81210
H          3.14170        2.56630        0.02280
H          3.87160        1.19410       -0.83050
H          3.61390       -1.00260        0.04810
H          2.62350       -2.54260        1.70910
H          0.79510       -1.75920        3.19170
H         -0.07950        0.54580        2.95410
H          0.91310        2.08270        1.28250
