61
omegapdb_1v2k_19.xyz
N          7.53950       -1.08190       -2.58440
C          6.54500       -1.94940       -2.33870
C          5.32520       -1.60600       -1.77610
C          5.06920       -0.27090       -1.42950
C          6.10010        0.64060       -1.68670
C          7.29120        0.18790       -2.24910
N          3.85760        0.08620       -0.82290
C          3.73430        1.46720       -0.38170
C          2.56220        1.61220        0.58010
C          1.27690        1.11310       -0.07980
C          1.45260       -0.31950       -0.58340
C          2.65140       -0.37160       -1.51610
C          0.00990        1.39660        0.71290
O         -0.81040        2.19560        0.25260
N         -0.19730        0.80380        1.92750
C         -1.46640        1.04580        2.61030
C         -2.04870       -0.29390        3.09400
N         -1.58550       -1.32460        2.18400
C         -0.16580       -1.62730        2.28040
C          0.55700       -0.28590        2.51120
S         -2.63740       -2.45610        1.61910
O         -1.83980       -3.36880        0.82250
O         -3.49120       -2.96530        2.67650
C         -3.67120       -1.46350        0.57130
C         -3.14920       -0.37890       -0.10090
C         -3.97900        0.38420       -0.94980
C         -5.34450       -0.00570       -1.12400
C         -5.83420       -1.13280       -0.42160
C         -5.01970       -1.85090        0.42460
C         -6.17310        0.75060       -1.98160
C         -5.65740        1.85050       -2.62840
C         -4.31740        2.25310       -2.45160
C         -3.49110        1.53050       -1.62200
Cl        -6.67050        2.78100       -3.68350
H          6.74060       -2.98270       -2.59780
H          4.59770       -2.38050       -1.58060
H          5.99380        1.69320       -1.47560
H          8.08550        0.89730       -2.44860
H          4.65320        1.74900        0.12920
H          3.59890        2.14910       -1.23630
H          2.79340        1.05500        1.48750
H          2.45270        2.66220        0.85670
H          1.12320        1.73360       -0.96650
H          0.55800       -0.64810       -1.11670
H          1.63280       -1.01950        0.22990
H          2.46440        0.26050       -2.39810
H          2.80710       -1.38660       -1.86920
H         -2.12740        1.52420        1.89370
H         -1.31850        1.72510        3.45360
H         -1.74350       -0.52600        4.11870
H         -3.13640       -0.25690        3.08190
H          0.14410       -2.09460        1.35000
H          0.05930       -2.31120        3.10570
H          0.64480       -0.08840        3.58160
H          1.56280       -0.32870        2.11290
H         -2.11410       -0.09510        0.02910
H         -6.87030       -1.42050       -0.54880
H         -5.39450       -2.69570        0.98440
H         -7.20690        0.46750       -2.12670
H         -3.95640        3.13140       -2.96720
H         -2.46710        1.84060       -1.45460
