44
omegacsd_CUHNEY10_03.xyz
Cl         0.30580       -5.03260       -0.58060
C         -0.46270       -3.48420       -0.61360
C         -0.26060       -2.58600        0.42990
N         -0.84750       -1.38820        0.45510
C         -1.64870       -1.04640       -0.55790
N         -2.20920        0.23190       -0.43400
C         -3.20500        0.78280       -1.23720
O         -3.76260        0.26000       -2.18120
C         -3.43800        2.13990       -0.66260
N         -4.31510        3.04550       -1.09170
C         -4.28190        4.17710       -0.36970
C         -3.41470        4.37690        0.71190
N         -2.53550        3.45040        1.13030
C         -2.58230        2.33240        0.41120
C         -1.72230        1.12380        0.61520
O         -0.36620        1.43200        0.36640
C          0.50280        1.06670        1.37990
O          0.15520        0.86530        2.52240
N          1.77450        1.03940        0.90910
C          2.80720        0.46930        1.76570
C          3.57620       -0.59920        0.98110
N          2.64190       -1.31000        0.12590
C          2.21320       -0.45410       -0.97950
C          2.09840        0.99860       -0.50370
C          3.19500       -2.55000       -0.38370
C         -1.90050       -1.87890       -1.65520
C         -1.29010       -3.12560       -1.67320
H          0.39000       -2.83020        1.25790
H         -4.97010        4.95950       -0.66210
H         -3.43050        5.31220        1.25580
H         -1.81130        0.67810        1.60470
H          2.30750        0.02750        2.62290
H          3.48690        1.24830        2.11900
H          4.40480       -0.15450        0.40550
H          4.02010       -1.30450        1.68290
H          2.93060       -0.49210       -1.81540
H          1.25180       -0.82150       -1.34560
H          1.35460        1.54180       -1.07400
H          3.05310        1.51060       -0.62950
H          2.46050       -3.03630       -1.02460
H          3.42460       -3.22130        0.44260
H          4.11090       -2.39000       -0.97320
H         -2.55530       -1.55560       -2.44710
H         -1.45520       -3.80940       -2.49350
