41
omegacsd_CEJTIU_05.xyz
C         -6.37170       -0.74450       -0.39280
N         -5.72910        0.47370        0.05470
C         -6.37720        1.01340        1.24090
C         -4.32470        0.44640        0.09210
C         -3.58020       -0.65970       -0.34190
C         -2.18580       -0.65420       -0.35630
C         -1.48950        0.46910        0.08830
C         -2.21840        1.57850        0.53250
C         -3.60330        1.57000        0.53260
N         -0.09010        0.57150        0.11870
C          0.80200       -0.37760       -0.24020
O          0.58120       -1.50180       -0.65620
N          2.15580        0.04010       -0.09490
C          2.65930        1.22990        0.34420
O          1.97120        2.18090        0.70480
C          4.17940        1.33070        0.36800
C          4.92600        0.11300       -0.08630
C          5.26660       -0.89300        0.82350
C          5.91180       -2.05040        0.39470
C          6.22230       -2.21720       -0.95360
C          5.88790       -1.22110       -1.86910
C          5.24280       -0.06490       -1.43670
H         -6.01940       -1.01160       -1.38650
H         -6.19800       -1.59560        0.28100
H         -7.44330       -0.56660       -0.45000
H         -6.00480        2.00550        1.47210
H         -7.44510        1.09690        1.04880
H         -6.22810        0.37340        2.12070
H         -4.07850       -1.55540       -0.67840
H         -1.64260       -1.51940       -0.69770
H         -1.69120        2.46130        0.87310
H         -4.12410        2.45990        0.85340
H          0.32860        1.44270        0.44020
H          2.81180       -0.67860       -0.36720
H          4.42670        2.19630       -0.24740
H          4.44150        1.59340        1.39340
H          5.02550       -0.76520        1.87160
H          6.17080       -2.81860        1.11020
H          6.72220       -3.11540       -1.28800
H          6.12820       -1.34370       -2.91610
H          4.98340        0.70800       -2.14980
