36
omegapdb_1qxw_31.xyz
C          5.15490        0.50830        0.26120
C          4.35770        0.57910       -1.02390
C          3.75100        1.01520        0.28730
N          2.73860        0.22950        0.93710
C          1.44250        0.29920        0.26650
C          0.42800       -0.39160        1.16510
C         -1.03940       -0.20050        0.75030
N         -1.51850        1.16470        0.93510
C         -1.29290       -0.68990       -0.67130
C         -2.74860       -1.03390       -0.98580
C         -3.69530        0.15450       -1.10980
C         -5.10240       -0.28490       -1.49310
O          0.54390        0.10180        2.47450
O          0.78590       -1.77000        1.12900
H          5.32940       -0.47230        0.67930
H          5.95790        1.21350        0.40630
H          4.00770       -0.35760       -1.43250
H          4.62680        1.33050       -1.75030
H          3.61800        2.07920        0.42930
H          3.02330       -0.74440        0.96910
H          1.17030        1.34960        0.16420
H          1.44440       -0.16050       -0.72570
H         -1.60530       -0.83960        1.43920
H         -1.16300        1.75700        0.19390
H         -1.14660        1.52380        1.80700
H         -0.93850        0.06770       -1.37900
H         -0.68160       -1.57870       -0.82710
H         -3.12410       -1.71540       -0.21650
H         -2.77320       -1.59390       -1.92500
H         -3.30470        0.83770       -1.86920
H         -3.70920        0.70860       -0.17360
H         -5.10140       -0.81930       -2.44360
H         -5.77650        0.56500       -1.58780
H         -5.51590       -0.95470       -0.73880
H          1.49560        0.29020        2.56630
H          0.36140       -2.16770        1.89870
