34
omegapdb_2f7p_01.xyz
C         -1.32050       -1.10610       -0.55700
N         -0.07120       -0.53260       -0.05300
C          1.01360       -0.54370       -1.03840
C          2.24190        0.08140       -0.44500
C          3.34200       -0.69790       -0.08640
C          4.46370       -0.11360        0.50020
C          4.48960        1.25870        0.73540
C          3.39240        2.04490        0.38270
C          2.27500        1.45820       -0.20310
C         -2.22980       -1.42330        0.65190
O         -1.50440       -1.85840        1.77760
C         -3.01160       -0.09960        0.94860
O         -2.68930        0.39850        2.23160
C         -2.58180        0.89650       -0.15750
O         -1.51870        1.70890        0.32920
C         -2.10400       -0.01180       -1.29360
S         -3.46230       -0.65590       -2.32140
H         -1.14850       -1.98550       -1.18640
H          0.19750       -1.07210        0.76770
H          1.23360       -1.56090       -1.38430
H          0.68610        0.02990       -1.90770
H          3.32060       -1.76490       -0.27100
H          5.31180       -0.72690        0.77190
H          5.35870        1.71440        1.18930
H          3.40970        3.11120        0.56190
H          1.42190        2.06840       -0.47510
H         -2.92840       -2.20950        0.36280
H         -1.67780       -1.16610        2.44120
H         -4.08450       -0.28140        0.91860
H         -2.09790        1.15040        2.03930
H         -3.38660        1.56100       -0.46010
H         -0.74490        1.08950        0.33290
H         -1.48450        0.54500       -1.99690
H         -4.11140       -1.30620       -1.35040
