25
omegapdb_1m5f_12.xyz
O         -0.26600       -2.69500       -1.09250
C         -1.29000       -1.98400       -1.63540
O         -1.78790       -2.25430       -2.69950
C         -1.71640       -0.89010       -0.73620
N         -2.97500       -0.46860       -0.83960
O         -3.09910        0.51950        0.10700
C         -1.92660        0.68470        0.75940
C         -1.00000       -0.19880        0.27160
C          0.43280       -0.29530        0.65980
C          1.32000        0.51280       -0.30660
N          1.18370       -0.00570       -1.65170
C          2.73970        0.46450        0.22410
O          3.62070       -0.24330       -0.20500
O          2.90090        1.28960        1.28570
C         -1.88670        1.73910        1.79990
H         -0.07950       -3.39190       -1.74050
H          0.75960       -1.33430        0.64470
H          0.57250        0.08520        1.67120
H          0.98400        1.55020       -0.28870
H          1.64380        0.61330       -2.30820
H          1.67830       -0.88960       -1.70870
H          3.81420        1.16120        1.58480
H         -2.02480        2.72580        1.35990
H         -2.67300        1.58450        2.53680
H         -0.92550        1.72100        2.30760
