40
omegapdb_2byh_15.xyz
O          6.04640        0.13990        2.44740
C          4.93300        0.63980        2.40180
C          4.47950        1.63960        3.43570
C          3.98020        0.27090        1.31100
C          2.70930        0.84480        1.19840
C          1.85710        0.47780        0.16410
C          2.25750       -0.49660       -0.75290
C          3.52920       -1.06680       -0.65140
C          4.38590       -0.67880        0.36830
N          1.40850       -0.89530       -1.80780
C          0.06360       -1.12150       -1.75850
O         -0.58830       -1.17870       -2.80650
C         -0.53530       -1.34820       -0.44080
C          0.01660       -2.02660        0.66520
N         -0.83630       -2.06290        1.69700
N         -1.90720       -1.39940        1.24820
C         -1.81090       -0.94970       -0.03240
C         -2.90290       -0.16590       -0.60720
C         -3.38690        0.92400        0.12920
C         -4.51040        1.61780       -0.28940
Cl        -5.10730        2.97260        0.61950
C         -5.18740        1.24240       -1.45420
O         -6.29230        1.88740       -1.89880
C         -4.69770        0.17350       -2.19530
C         -3.56460       -0.53330       -1.79740
O         -3.19130       -1.58990       -2.54850
H          5.27510        1.77660        4.16060
H          4.24650        2.59440        2.96490
H          3.57850        1.29070        3.93880
H          2.38210        1.59410        1.90480
H          0.88620        0.94210        0.06110
H          3.82950       -1.82220       -1.36590
H          5.37200       -1.11040        0.46500
H          1.78580       -0.90220       -2.74560
H          0.98140       -2.49660        0.75300
H         -2.71950       -1.31170        1.83950
H         -2.87730        1.23480        1.03160
H         -6.47840        2.60320       -1.27490
H         -5.20510       -0.11870       -3.10330
H         -2.20510       -1.59120       -2.60830
