25
omegapdb_1m5f_19.xyz
O         -0.95410       -3.42610       -1.66890
C         -0.39640       -2.21280       -1.53390
O          0.66030       -1.92500       -2.04630
C         -1.18250       -1.25410       -0.72440
N         -2.37490       -1.61880       -0.26740
O         -2.84830       -0.54100        0.43060
C         -1.93730        0.46130        0.38530
C         -0.84990        0.06460       -0.34610
C          0.40710        0.81440       -0.61550
C          1.43840        0.68490        0.51710
N          2.67440        1.34640        0.09920
C          1.71990       -0.79290        0.79880
O          0.96070       -1.48530        1.43540
O          2.85900       -1.24430        0.26810
C         -2.27960        1.70200        1.11720
H         -1.78500       -3.42390       -1.16610
H          0.85670        0.44830       -1.53750
H          0.18380        1.87670       -0.74020
H          1.00440        1.09440        1.43200
H          2.47900        2.15160       -0.48140
H          3.20290        1.67300        0.89860
H          3.25260       -0.45970       -0.16850
H         -3.27510        2.04920        0.84760
H         -2.25510        1.53640        2.19360
H         -1.56100        2.48090        0.87260
