24
omegapdb_1gs5_14.xyz
C         -0.51250       -0.54280       -0.17530
C         -1.08450       -1.75100        0.52300
O         -2.19210       -1.81320        1.00660
O         -0.19790       -2.76660        0.58010
C          0.62210        0.09110        0.64900
C          1.96820       -0.57410        0.42810
C          3.04680        0.04660        1.28640
O          2.85640        0.86940        2.14340
O          4.30570       -0.40740        1.04270
N         -1.59570        0.38180       -0.38780
C         -1.48060        1.35150       -1.33410
O         -0.45380        1.48940       -1.99040
C         -2.68360        2.24320       -1.50590
H         -0.11250       -0.84580       -1.14540
H         -0.64030       -3.47490        1.07380
H          0.69080        1.13060        0.33660
H          0.36620        0.08950        1.70840
H          2.25750       -0.48250       -0.62210
H          1.92830       -1.64020        0.65630
H          4.27210       -1.04430        0.32000
H         -2.45830        0.21140        0.10240
H         -2.39840        3.26170       -1.25270
H         -2.97530        2.23240       -2.55300
H         -3.52830        1.94450       -0.89050
