36
omegapdb_1qxw_23.xyz
C          3.87590        1.71430       -0.47650
C          4.99320        0.78520       -0.04800
C          3.62620        0.23960       -0.29610
N          2.86380       -0.24330        0.82920
C          1.42450        0.00680        0.72620
C          0.75860       -1.17910        0.03080
C         -0.76130       -1.26230        0.24050
N         -1.16120       -1.60500        1.59950
C         -1.47360        0.00730       -0.20440
C         -2.98040       -0.17390       -0.33290
C         -3.69750        1.11460       -0.71240
C         -5.20070        0.92030       -0.86110
O          1.30630       -2.37150        0.52080
O          1.05010       -1.03570       -1.35560
H          3.47450        2.37380        0.27910
H          3.90140        2.11610       -1.47760
H          5.31820        0.85070        0.98060
H          5.77430        0.55810       -0.75590
H          3.46870       -0.33980       -1.19180
H          3.22680        0.16680        1.68010
H          1.01750        0.07720        1.73410
H          1.20150        0.92830        0.18330
H         -1.08640       -2.08510       -0.40760
H         -0.55520       -2.34190        1.94120
H         -1.02600       -0.80640        2.20850
H         -1.26910        0.80160        0.52220
H         -1.05620        0.33310       -1.15780
H         -3.18280       -0.93590       -1.09120
H         -3.38000       -0.55860        0.60660
H         -3.49810        1.87290        0.04860
H         -3.28020        1.49870       -1.64630
H         -5.42040        0.18670       -1.63660
H         -5.70350        1.84890       -1.12690
H         -5.63620        0.55700        0.06940
H          2.22750       -2.12250        0.73190
H          0.86000       -1.89730       -1.74670
