36
omegapdb_1qxw_22.xyz
C          3.64710        1.78320       -0.54940
C          4.28620        1.60870        0.81260
C          2.80940        1.45490        0.66460
N          2.22010        0.15730        0.84210
C          1.10130       -0.07180       -0.06590
C          0.26490       -1.24890        0.41870
C         -0.58390       -1.89170       -0.68120
N         -1.43410       -2.87090        0.00240
C         -1.44680       -0.94470       -1.51820
C         -2.62700       -0.24180       -0.83250
C         -2.32760        1.14370       -0.27070
C         -3.58200        1.80330        0.28790
O         -0.53440       -0.82640        1.48710
O          1.12890       -2.30110        0.84880
H          3.59940        2.77760       -0.96650
H          3.79930        0.98830       -1.26510
H          4.85980        0.70790        0.97700
H          4.66350        2.48410        1.31700
H          2.19400        2.25390        1.05560
H          2.92480       -0.55110        0.67050
H          0.48080        0.82140       -0.07670
H          1.42920       -0.26320       -1.09590
H          0.13050       -2.36350       -1.36460
H         -0.85930       -3.64030        0.32470
H         -2.12160       -3.24860       -0.63780
H         -1.83760       -1.55750       -2.33520
H         -0.80240       -0.20280       -1.99490
H         -3.42800       -0.13440       -1.56840
H         -3.02600       -0.87830       -0.04070
H         -1.90800        1.76620       -1.06570
H         -1.57930        1.06450        0.51450
H         -3.37170        2.79650        0.68180
H         -4.00060        1.20580        1.09790
H         -4.34840        1.90240       -0.48140
H         -1.22110       -1.51530        1.53780
H          1.50060       -1.96740        1.67700
