45
omegacsd_SEYMIS_10.xyz
O         -5.37880       -2.14890        0.57880
N         -5.34820       -1.07440       -0.28550
C         -4.09900       -0.62770       -0.26270
C         -3.29370       -1.40200        0.62200
C         -1.84600       -1.33670        0.93710
O         -1.37830       -1.78360        1.97790
N         -1.09870       -0.76360       -0.04980
C          0.25920       -0.45630        0.03200
C          0.91610        0.32750       -0.91750
N          2.22570        0.43760       -0.55110
C          3.19480        1.19040       -1.33100
C          2.41810       -0.25860        0.61890
C          1.20030       -0.82730        1.00240
C          3.66770       -0.40200        1.35770
O          3.77620       -1.03220        2.38870
O          4.70670        0.24670        0.77000
C          5.95290        0.11850        1.48190
C          6.98730        0.88980        0.70090
C         -4.15920       -2.33850        1.12240
C         -4.01180       -3.45790        2.07870
C         -3.74240        0.53400       -1.08630
C         -4.13630        0.58730       -2.42810
C         -3.79500        1.68490       -3.21380
C         -3.05600        2.73460       -2.67010
C         -2.66740        2.68940       -1.33140
C         -3.01070        1.59700       -0.53990
H         -1.59460       -0.41060       -0.85330
H          0.54600        0.80370       -1.81020
H          3.99820        0.54340       -1.66890
H          3.61920        1.99480       -0.73870
H          2.67140        1.60300       -2.18860
H          1.04100       -1.42650        1.87830
H          5.82480        0.50910        2.48980
H          6.20450       -0.93730        1.56440
H          6.71180        1.93950        0.62660
H          7.95180        0.82300        1.20110
H          7.09350        0.48570       -0.30350
H         -2.96190       -3.56540        2.33180
H         -4.56930       -3.25230        2.99170
H         -4.39380       -4.38120        1.64700
H         -4.70570       -0.23460       -2.84000
H         -4.10240        1.71860       -4.24990
H         -2.78960        3.58450       -3.28330
H         -2.10650        3.50700       -0.90000
H         -2.72180        1.56750        0.50260
