50
omegapdb_1xom_17.xyz
O          6.96280        0.72170        0.65700
C          6.11990        0.96560       -0.38540
O          6.45800        1.70690       -1.27110
C          4.77330        0.27660       -0.30220
C          3.91150        0.94340        0.77980
C          2.55090        0.26370        0.87960
C          1.79940        0.26590       -0.46910
C          2.69630       -0.36630       -1.55530
C          4.05750        0.31170       -1.64590
C          1.55820        1.66240       -0.83590
N          1.39010        2.78840       -1.11910
C          0.47940       -0.47690       -0.35640
C          0.46870       -1.81800        0.02940
C         -0.73030       -2.52230        0.13370
C         -1.94790       -1.90170       -0.15110
O         -3.15890       -2.51670       -0.10090
C         -3.15380       -3.88850        0.26150
C         -1.94920       -0.54390       -0.52500
C         -0.74280        0.14200       -0.62580
O         -3.08410        0.12860       -0.86270
C         -4.15990        0.16480        0.10900
C         -4.95120        1.41110       -0.24170
C         -4.08120        2.56690        0.28450
C         -3.20270        1.95120        1.40370
C         -3.63400        0.47930        1.49990
H          6.54060        0.09870        1.25930
H          4.94010       -0.76810       -0.01160
H          4.40690        0.90760        1.75200
H          3.78460        1.99890        0.52650
H          2.67990       -0.77730        1.18390
H          1.92920        0.74910        1.63320
H          2.81770       -1.42230       -1.30260
H          2.17560       -0.32160       -2.51260
H          3.94690        1.35170       -1.95600
H          4.66820       -0.17600       -2.40560
H          1.39120       -2.33840        0.24990
H         -0.70310       -3.56100        0.42530
H         -2.75040       -4.03100        1.26520
H         -4.19110       -4.20460        0.23970
H         -2.57770       -4.48170       -0.45000
H         -0.79010        1.18000       -0.92840
H         -4.72920       -0.75970        0.05160
H         -5.14940        1.47060       -1.30990
H         -5.90770        1.37110        0.28160
H         -4.69150        3.39020        0.65000
H         -3.45430        2.95750       -0.51370
H         -2.14930        2.01370        1.13460
H         -3.32300        2.46650        2.35460
H         -4.46090        0.35950        2.20240
H         -2.83330       -0.18900        1.81560
