24
omegapdb_1gs5_18.xyz
C         -0.13870       -0.60070        0.09690
C         -1.12590       -1.74100        0.27140
O         -2.31050       -1.61520        0.46670
O         -0.49410       -2.93440        0.22220
C          0.72730       -0.47430        1.35030
C          1.79880        0.60450        1.21060
C          2.70700        0.42880        0.01080
O          2.98570        1.30980       -0.75830
O          3.23440       -0.81550       -0.15770
N         -0.81860        0.63500       -0.18310
C         -1.36390        0.79770       -1.44110
O         -1.07800        0.05420       -2.36440
C         -2.31860        1.95470       -1.57090
H          0.48060       -0.83750       -0.76820
H         -1.18140       -3.60620        0.34890
H          0.09110       -0.23530        2.20590
H          1.16300       -1.45110        1.56740
H          2.42340        0.61730        2.10640
H          1.34490        1.58530        1.10710
H          2.90940       -1.39930        0.53710
H         -1.33700        1.04600        0.57810
H         -2.10160        2.74820       -0.86000
H         -2.26790        2.34010       -2.58380
H         -3.32940        1.58920       -1.39240
