41
omegacsd_CEJTIU_08.xyz
C         -3.94000       -2.15160        0.57600
N         -3.34570       -0.98130        1.19120
C         -4.25920       -0.17120        1.97240
C         -2.38040       -0.30350        0.45060
C         -2.01110        1.01860        0.76160
C         -0.98720        1.65420        0.07270
C         -0.30370        1.01050       -0.96030
C         -0.69770       -0.27600       -1.32780
C         -1.71920       -0.91230       -0.63180
N          0.79580        1.67410       -1.52800
C          1.68250        1.15080       -2.42030
O          1.45140        0.26470       -3.22160
N          2.94400        1.79500       -2.37910
C          3.82750        1.87610       -1.30280
O          4.99990        2.13260       -1.51340
C          3.30800        1.64390        0.10330
C          2.60790        0.32610        0.33170
C          2.93440       -0.81030       -0.41280
C          2.29480       -2.02430       -0.16720
C          1.32680       -2.11890        0.83040
C          0.99940       -0.99340        1.58380
C          1.63690        0.21890        1.33240
H         -3.18750       -2.91920        0.40790
H         -4.68090       -2.56240        1.25650
H         -4.42660       -1.92920       -0.38210
H         -3.72210        0.37900        2.74230
H         -4.96480       -0.82850        2.47320
H         -4.82040        0.54750        1.36180
H         -2.50810        1.55980        1.55150
H         -0.71260        2.66590        0.35020
H         -0.20520       -0.77540       -2.14600
H         -1.98980       -1.90870       -0.94480
H          1.08600        2.51990       -1.06680
H          3.44610        1.70640       -3.25410
H          4.19380        1.72080        0.73340
H          2.64850        2.46500        0.39460
H          3.68740       -0.75180       -1.18940
H          2.55210       -2.89180       -0.75950
H          0.82620       -3.05970        1.01440
H          0.23880       -1.05310        2.35050
H          1.37360        1.09280        1.91580
