24
omegapdb_1gs5_11.xyz
C         -0.33380       -0.96580       -0.26460
C         -1.45000       -1.68600        0.48930
O         -2.58760       -1.77220        0.09570
O         -1.00280       -2.28400        1.61180
C          0.82610       -0.51550        0.62040
C          1.93390        0.12730       -0.21340
C          3.07440        0.55450        0.66390
O          3.36730        1.69220        0.94820
O          3.75410       -0.51790        1.14500
N         -0.89790        0.11350       -1.04670
C         -1.68170        1.04810       -0.41820
O         -1.74060        1.11640        0.80050
C         -2.45390        1.96020       -1.33430
H          0.04900       -1.70240       -0.97650
H         -1.77580       -2.73130        1.98920
H          0.45420        0.18940        1.36080
H          1.21860       -1.38240        1.14670
H          2.30770       -0.58890       -0.94710
H          1.56370        1.00710       -0.73050
H          4.44270       -0.14940        1.71850
H         -1.08180       -0.05780       -2.02010
H         -3.45900        1.55660       -1.45030
H         -1.99530        2.04970       -2.31620
H         -2.53110        2.93890       -0.87210
