45
omegacsd_FABSOQ10_12.xyz
S          0.73030       -0.80110       -1.15110
C         -0.94990       -0.65960       -0.80200
C         -1.30740       -1.47150        0.25720
C         -0.22240       -2.21720        0.76260
C          0.96250       -1.96740        0.09870
C          2.29200       -2.62570        0.30350
O          2.47970       -3.71520       -0.59960
C          3.43530       -1.63220        0.25420
C          3.34160       -0.41810        0.93460
C          4.39210        0.49790        0.93140
C          5.56260        0.20210        0.22780
O          6.64520        1.02560        0.14680
C          6.54620        2.26010        0.83440
C          5.66720       -1.01340       -0.45210
C          4.61690       -1.92150       -0.43290
C         -1.82860        0.22300       -1.63540
O         -1.08090        1.41080       -1.90080
C         -3.12750        0.49630       -0.92770
C         -4.29450       -0.18630       -1.27970
C         -5.47980        0.03150       -0.59120
C         -5.51870        0.94800        0.46400
O         -6.72600        1.09710        1.07410
C         -6.77910        2.02160        2.14740
C         -4.35850        1.64230        0.82060
C         -3.17320        1.40710        0.12560
H         -2.31580       -1.50760        0.64340
H         -0.28690       -2.91440        1.58590
H          2.27210       -3.09730        1.28900
H          2.30090       -3.37340       -1.48380
H          2.43320       -0.17450        1.47180
H          4.28070        1.42830        1.46640
H          5.72360        2.86460        0.44860
H          6.41000        2.10770        1.90650
H          7.48480        2.77520        0.66020
H          6.58200       -1.22730       -0.98720
H          4.71110       -2.86770       -0.94570
H         -2.05060       -0.28850       -2.58010
H         -1.63430        1.96780       -2.46070
H         -4.27370       -0.89590       -2.09810
H         -6.38910       -0.49040       -0.85500
H         -7.80290        2.00410        2.50520
H         -6.52810        3.03000        1.81470
H         -6.10700        1.72930        2.95570
H         -4.36320        2.35680        1.62930
H         -2.27200        1.93880        0.40090
