40
omegapdb_2byh_13.xyz
O          5.56450        3.27240        1.64300
C          5.45190        2.09850        1.96300
C          6.47820        1.43110        2.84660
C          4.29690        1.28420        1.48810
C          3.34020        1.88750        0.66770
C          2.24110        1.18470        0.19380
C          2.08640       -0.16390        0.54390
C          3.04170       -0.77580        1.36460
C          4.13390       -0.06160        1.83350
N          1.01860       -0.95700        0.10800
C         -0.05610       -0.59590       -0.67110
O         -0.26170        0.53770       -1.08170
C         -0.94580       -1.73630       -0.97310
C         -0.61530       -3.09940       -1.10670
N         -1.69140       -3.85190       -1.38510
N         -2.69430       -2.96850       -1.41490
C         -2.32440       -1.67380       -1.18890
C         -3.30940       -0.59430       -1.17220
C         -3.16410        0.53110       -1.99010
C         -4.12580        1.52780       -2.00380
Cl        -3.93250        2.90570       -3.02350
C         -5.26340        1.42280       -1.19310
O         -6.18030        2.42290       -1.24390
C         -5.40410        0.31400       -0.36580
C         -4.43960       -0.68660       -0.34810
O         -4.65850       -1.73880        0.50120
H          6.93030        0.58200        2.33500
H          6.01370        1.05780        3.75880
H          7.24500        2.15630        3.09810
H          3.47410        2.92810        0.40720
H          1.50440        1.65890       -0.43180
H          2.92440       -1.81850        1.63470
H          4.85430       -0.56040        2.46590
H          1.00230       -1.89990        0.46260
H          0.35330       -3.56880       -1.05430
H         -3.62350       -3.28690       -1.64710
H         -2.28430        0.63000       -2.60690
H         -6.89050        2.21010       -0.62830
H         -6.26120        0.21920        0.28880
H         -3.82890       -2.22460        0.59210
