44
omegacsd_CUHNEY10_04.xyz
Cl         0.23850       -4.98790       -0.43220
C         -0.56780       -3.46220       -0.48530
C         -0.44660       -2.57740        0.58180
N         -1.03160       -1.37730        0.58620
C         -1.76860       -1.02580       -0.47300
N         -2.31580        0.25950       -0.39040
C         -3.26860        0.81010       -1.24550
O         -3.83130        0.25950       -2.17000
C         -3.44210        2.20860       -0.75640
N         -4.27080        3.12630       -1.25120
C         -4.18780        4.29850       -0.60200
C         -3.32110        4.52400        0.47520
N         -2.49300        3.58420        0.96200
C         -2.58660        2.42710        0.31250
C         -1.79080        1.19280        0.60480
O         -0.41870        1.40160        0.34600
C          0.42400        1.03610        1.38250
O          0.08930        1.03020        2.54720
N          1.64750        0.74990        0.87690
C          1.83650        0.47500       -0.54920
C          3.30250        0.12870       -0.76020
N          3.74760       -1.04570       -0.01020
C          3.11060       -1.13000        1.30830
C          2.66630        0.23790        1.78790
C          3.53560       -2.28200       -0.74270
C         -1.96040       -1.85650       -1.58400
C         -1.33980       -3.09810       -1.58390
H          0.13030       -2.84570        1.45730
H         -4.83420        5.09320       -0.95090
H         -3.29580        5.49160        0.95900
H         -1.91290        0.82280        1.62160
H          1.56420        1.34980       -1.13690
H          1.19450       -0.35350       -0.86450
H          3.90880        0.99100       -0.47680
H          3.48460       -0.05060       -1.81900
H          2.21840       -1.77150        1.27100
H          3.80610       -1.57660        2.02140
H          2.21750        0.17650        2.77510
H          3.51510        0.92190        1.83690
H          4.07820       -2.25270       -1.68600
H          2.47360       -2.48540       -0.95120
H          3.92100       -3.11590       -0.15690
H         -2.57500       -1.53060       -2.40670
H         -1.45150       -3.77140       -2.42160
