36
omegapdb_1qxw_08.xyz
C          4.11480        1.39980        0.53490
C          3.99660        1.55990       -0.96640
C          2.76200        1.44270       -0.13610
N          1.94950        0.26550       -0.25450
C          1.36360       -0.13380        1.01480
C          0.58540       -1.42670        0.85860
C         -0.51060       -1.38840       -0.21180
N         -0.94970       -2.78030       -0.36330
C         -1.61070       -0.38140        0.09920
C         -2.67360       -0.31050       -0.99020
C         -3.78010        0.69970       -0.69450
C         -3.28750        2.14120       -0.64380
O          1.52020       -2.41950        0.52330
O         -0.06780       -1.75110        2.07950
H          4.44190        2.24960        1.11440
H          4.44340        0.43640        0.89690
H          4.23620        2.51800       -1.40000
H          4.25920        0.70690       -1.57500
H          2.18330        2.34600        0.00570
H          2.51360       -0.50830       -0.59170
H          2.11400       -0.29870        1.80190
H          0.69320        0.65000        1.36460
H         -0.01730       -1.09770       -1.13970
H         -1.54410       -3.03080        0.41910
H         -1.49090       -2.89690       -1.20870
H         -1.15040        0.60020        0.21600
H         -2.07140       -0.63890        1.05640
H         -3.12570       -1.29600       -1.12050
H         -2.19720       -0.05360       -1.94170
H         -4.55230        0.61300       -1.46090
H         -4.25540        0.44000        0.25430
H         -4.11640        2.83490       -0.51250
H         -2.77390        2.40470       -1.56890
H         -2.59290        2.30080        0.17880
H          0.96580       -3.10860        0.10990
H          0.62530       -2.08840        2.65900
