24
omegapdb_1gs5_22.xyz
C         -0.37040       -0.71300       -0.55730
C         -0.88120       -1.70730        0.49000
O         -0.72380       -2.89820        0.34980
O         -1.43910       -1.18240        1.58380
C          0.87930        0.01800       -0.05880
C          1.94720       -0.96120        0.39710
C          3.23130       -0.26130        0.74420
O          3.48210        0.90330        0.53390
O          4.10310       -1.10580        1.33860
N         -1.38730        0.21870       -1.04350
C         -1.97190        1.19290       -0.31270
O         -1.77250        1.32530        0.90010
C         -2.92620        2.08970       -1.05410
H         -0.09310       -1.32620       -1.41190
H         -1.50190       -0.19850        1.47360
H          1.26590        0.63090       -0.87220
H          0.62340        0.69410        0.75410
H          2.17460       -1.69260       -0.38210
H          1.63180       -1.54400        1.26270
H          4.89810       -0.57910        1.51100
H         -1.63680        0.15700       -2.01500
H         -3.94060        1.76260       -0.82910
H         -2.81330        3.09950       -0.67210
H         -2.77900        2.07760       -2.13010
