44
omegacsd_CUHNEY10_00.xyz
Cl         0.27350       -5.03150       -0.58180
C         -0.49150       -3.48390       -0.61720
C         -0.43690       -2.65790        0.50150
N         -1.00500       -1.45000        0.52600
C         -1.65150       -1.03090       -0.56540
N         -2.20250        0.25200       -0.45280
C         -3.17150        0.80850       -1.28510
O         -3.70690        0.28400       -2.24010
C         -3.40560        2.17030       -0.72130
N         -4.26650        3.08100       -1.17160
C         -4.23930        4.21520       -0.45360
C         -3.39310        4.41270        0.64500
N         -2.52980        3.48110        1.08470
C         -2.57050        2.36080        0.36910
C         -1.72110        1.14820        0.59320
O         -0.36120        1.44510        0.33940
C          0.51460        1.09100        1.34810
O          0.16890        0.86120        2.48680
N          1.79120        1.10290        0.88070
C          2.12100        1.02020       -0.53560
C          2.34500       -0.43080       -0.92680
N          3.38890       -1.01860       -0.09580
C          3.02360       -0.94110        1.31430
C          2.81280        0.50560        1.72860
C          3.60880       -2.40310       -0.47890
C         -1.75890       -1.79160       -1.73580
C         -1.16260       -3.04500       -1.75400
H          0.07340       -2.97970        1.40010
H         -4.91520        5.00170       -0.76310
H         -3.41310        5.35010        1.18500
H         -1.81410        0.71210        1.58600
H          1.32960        1.47030       -1.12350
H          3.04370        1.58130       -0.69200
H          2.66220       -0.48780       -1.96960
H          1.39270       -0.97990       -0.83070
H          2.09900       -1.50450        1.52310
H          3.82860       -1.38390        1.90280
H          2.48780        0.57580        2.76200
H          3.73840        1.06650        1.59430
H          4.40900       -2.82670        0.12600
H          3.90660       -2.44940       -1.52540
H          2.70880       -3.02290       -0.34780
H         -2.29710       -1.40900       -2.58720
H         -1.21430       -3.66950       -2.63420
