46
omegacsd_CDBMPI10_05.xyz
O          2.54160       -2.14480       -1.35370
C          2.46500       -1.18420       -0.60350
N          1.25070       -0.73170       -0.10410
C          0.04680       -1.34940       -0.67900
C         -1.12880       -1.15590        0.28690
N         -1.25480        0.24410        0.68490
C         -0.05020        0.91110        1.20040
C          1.11690       -0.08390        1.19830
C          0.26640        2.18210        0.40520
C         -2.46740        0.82790        1.02770
O         -2.54400        1.73860        1.83780
C         -3.72660        0.30660        0.36470
C         -3.81200        0.14550       -1.01440
C         -4.99290       -0.32330       -1.59240
C         -6.09150       -0.60770       -0.78670
C         -6.01900       -0.41600        0.59290
C         -4.83570        0.05400        1.16320
C         -0.25000       -0.79590       -2.07670
C          3.72590       -0.44930       -0.19430
C          3.82630        0.93440       -0.29450
C          5.00730        1.57890        0.07730
C          6.09090        0.83070        0.52790
C          6.00320       -0.55940        0.59950
C          4.81980       -1.19660        0.22540
H          0.24050       -2.42110       -0.77590
H         -0.98220       -1.80690        1.16500
H         -2.05310       -1.48600       -0.18520
H         -0.25230        1.20320        2.23450
H          2.04320        0.43290        1.44570
H          0.95580       -0.82710        1.99710
H         -0.57440        2.87710        0.43410
H          1.14210        2.68950        0.82910
H          0.47920        1.94990       -0.64570
H         -2.95040        0.36910       -1.63950
H         -5.04360       -0.46660       -2.66750
H         -7.01200       -0.97560       -1.23670
H         -6.87950       -0.62640        1.22610
H         -4.76090        0.22570        2.23230
H         -0.45460        0.28140       -2.04150
H          0.59700       -0.95720       -2.74530
H         -1.12490       -1.29800       -2.50840
H          2.97570        1.51390       -0.64670
H          5.06990        2.66120        0.01580
H          7.01150        1.33310        0.82010
H          6.85190       -1.14970        0.94140
H          4.73350       -2.27820        0.25860
