36
omegapdb_1qxw_20.xyz
C          2.39470        2.20470       -0.17810
C          2.87810        1.66160       -1.50040
C          2.83440        0.77350       -0.29380
N          1.79760       -0.21660       -0.25060
C          1.46730       -0.61110        1.10860
C          0.35720       -1.64760        1.12040
C         -0.90460       -1.23010        0.35040
N         -1.93260       -2.26820        0.36090
C         -1.48620        0.07700        0.87740
C         -2.72470        0.53570        0.11020
C         -2.51210        0.66150       -1.39700
C         -1.34420        1.56850       -1.77000
O          0.93460       -2.80760        0.54770
O         -0.05520       -1.91540        2.44710
H          3.03270        2.89420        0.35230
H          1.33280        2.37080       -0.07930
H          2.12940        1.47620       -2.25470
H          3.84260        1.98360       -1.86070
H          3.78820        0.52600        0.16740
H          2.08250       -1.04230       -0.76700
H          2.32170       -1.04390        1.65230
H          1.13940        0.26760        1.65990
H         -0.58750       -1.08610       -0.68120
H         -2.04430       -2.64360        1.29510
H         -1.72110       -3.02710       -0.27240
H         -1.73320       -0.04880        1.93370
H         -0.71770        0.84850        0.82140
H         -3.53750       -0.16470        0.29710
H         -3.03460        1.50590        0.50730
H         -2.36070       -0.33130       -1.82490
H         -3.42980        1.04600       -1.84580
H         -1.46070        2.55430       -1.31620
H         -1.28180        1.70620       -2.84900
H         -0.39410        1.15430       -1.43270
H          0.21700       -3.44870        0.47040
H          0.71240       -2.28290        2.90140
