45
omegacsd_SEYMIS_02.xyz
O         -4.59700       -1.31870        1.65680
N         -5.03110       -1.03280        0.38120
C         -4.07440       -0.30580       -0.18670
C         -2.98950       -0.11680        0.71900
C         -1.71210        0.61800        0.54380
O         -1.64120        1.81450        0.28450
N         -0.61670       -0.17200        0.73610
C          0.70960        0.26100        0.67510
C          1.16820        1.55460        0.41960
N          2.53150        1.52540        0.46080
C          3.36280        2.69910        0.24130
C          2.95580        0.25040        0.73440
C          1.82860       -0.56110        0.87410
C          4.36400       -0.09670        0.84380
O          5.29680        0.67720        0.71360
O          4.50790       -1.41160        1.11810
C          5.87380       -1.86190        1.21970
C          6.45540       -2.14290       -0.14750
C         -3.37730       -0.77650        1.85400
C         -2.76610       -0.96820        3.19150
C         -4.23570        0.11780       -1.58080
C         -3.70760        1.33230       -2.03350
C         -3.88820        1.71290       -3.36070
C         -4.59370        0.89600       -4.24170
C         -5.12290       -0.31200       -3.78920
C         -4.94420       -0.70340       -2.46700
H         -0.77650       -1.15900        0.85330
H          0.62530        2.45700        0.21510
H          4.03260        2.53600       -0.59690
H          3.95990        2.91050        1.12280
H          2.69850        3.53200        0.03200
H          1.84880       -1.61540        1.09080
H          6.45500       -1.11080        1.74920
H          5.81370       -2.76530        1.82010
H          7.46030       -2.55050       -0.04440
H          5.84270       -2.86720       -0.67990
H          6.51360       -1.22780       -0.73070
H         -2.55260       -2.02010        3.37850
H         -1.83850       -0.40530        3.25660
H         -3.44270       -0.61970        3.96980
H         -3.17180        1.96980       -1.34530
H         -3.48050        2.65390       -3.70410
H         -4.72980        1.19670       -5.27150
H         -5.66970       -0.95240       -4.46790
H         -5.34520       -1.64120       -2.10840
