57
omegacsd_SPIRIL_06.xyz
C         -2.36910       -0.10450       -1.56470
C         -2.87170       -1.19770       -0.60440
C         -2.84920       -2.52590       -1.35680
O         -1.85850       -3.12950       -1.73240
N         -4.13930       -2.90590       -1.54150
C         -5.11380       -1.97750       -1.03960
N         -4.29340       -1.05670       -0.27550
C         -4.88950        0.09710        0.21550
C         -4.15350        1.16180        0.77190
C         -4.80020        2.27910        1.28950
C         -6.18900        2.38170        1.27380
C         -6.92660        1.33850        0.72400
C         -6.29250        0.21630        0.19950
C         -2.01300       -1.32700        0.66130
C         -0.52350       -1.19890        0.37970
N         -0.25150        0.03520       -0.35660
C          1.18490        0.25540       -0.48130
C          1.83920        0.70380        0.82680
C          3.27870        1.04650        0.59690
C          4.32100        0.19780        0.69930
C          5.69030        0.65790        0.39060
C          6.79340        0.14900        1.09070
C          8.08670        0.59160        0.82870
C          8.27750        1.54500       -0.15850
C          7.21810        2.05790       -0.89110
C          5.93230        1.60580       -0.61420
F          9.52500        1.97310       -0.42380
C          4.16860       -1.23030        1.14690
C         -0.85330       -0.08440       -1.68360
H         -2.70230        0.86700       -1.20580
H         -2.82260       -0.26080       -2.54710
H         -4.37010       -3.72720       -2.07490
H         -5.84630       -2.47640       -0.39910
H         -5.65310       -1.47090       -1.85250
H         -3.07640        1.13340        0.80160
H         -4.20110        3.07730        1.70700
H         -6.68250        3.25330        1.67900
H         -8.00680        1.39020        0.69560
H         -6.90350       -0.57260       -0.21340
H         -2.22500       -2.29210        1.12560
H         -2.30410       -0.55920        1.37390
H         -0.16400       -2.07210       -0.18300
H          0.00440       -1.16860        1.33180
H          1.33710        1.03930       -1.22630
H          1.70010       -0.64500       -0.85690
H          1.29760        1.57650        1.19230
H          1.74590       -0.07060        1.58580
H          3.48870        2.06730        0.29590
H          6.64380       -0.59050        1.86490
H          8.93710        0.20910        1.37440
H          7.40800        2.78110       -1.67090
H          5.10460        1.97360       -1.20500
H          4.53070       -1.36560        2.16790
H          3.13190       -1.55470        1.11780
H          4.75060       -1.89370        0.50730
H         -0.49540       -0.98670       -2.20050
H         -0.55610        0.78340       -2.27400
