41
omegacsd_CEJTIU_10.xyz
C         -2.20440       -2.79730        0.71950
N         -2.31350       -1.37920        1.00620
C         -3.56340       -0.98610        1.62640
C         -1.78420       -0.50860        0.05490
C         -2.21990        0.82560       -0.04520
C         -1.64300        1.70650       -0.95340
C         -0.63790        1.27900       -1.81470
C         -0.21120       -0.04720       -1.74560
C         -0.76890       -0.92540       -0.82610
N         -0.08390        2.17170       -2.76740
C          1.24140        2.35780       -3.00840
O          1.70210        2.79260       -4.04930
N          2.08420        1.96750       -1.94130
C          1.90560        2.30790       -0.60850
O          0.97790        2.97880       -0.19850
C          2.91760        1.67000        0.31960
C          2.32160        0.38290        0.83760
C          2.80700       -0.85590        0.41460
C          2.25150       -2.03750        0.90290
C          1.19870       -1.98760        1.81470
C          0.69350       -0.75340        2.22360
C          1.24970        0.42500        1.73510
H         -1.16050       -3.09850        0.67440
H         -2.68820       -3.07650       -0.22510
H         -2.67220       -3.35220        1.52900
H         -3.85700       -1.75760        2.33350
H         -3.43830       -0.05960        2.18310
H         -4.37530       -0.84670        0.90090
H         -3.00300        1.19700        0.59690
H         -1.96280        2.73900       -0.98440
H          0.55570       -0.39900       -2.42260
H         -0.40460       -1.94010       -0.80520
H         -0.67710        2.52370       -3.50280
H          3.02610        1.76860       -2.24060
H          3.86130        1.46850       -0.18660
H          3.09610        2.36430        1.13860
H          3.63400       -0.89610       -0.28400
H          2.64760       -2.99150        0.58090
H          0.78060       -2.90310        2.21170
H         -0.13550       -0.71210        2.91610
H          0.85280        1.38490        2.03940
