61
omegapdb_1v2k_15.xyz
N          8.46550       -2.30880       -1.07170
C          7.85500       -1.64220       -2.05800
C          6.80230       -0.75130       -1.88330
C          6.30160       -0.50610       -0.59320
C          6.93850       -1.20700        0.44680
C          7.98490       -2.06920        0.15790
N          5.22550        0.32960       -0.38210
C          5.02420        1.01600        0.88220
C          3.53930        0.98840        1.25390
C          2.67380        1.06680       -0.02190
C          3.43940        1.85170       -1.07940
C          4.65850        1.04130       -1.52010
C          1.35990        1.74450        0.30490
O          1.24920        2.96790        0.25630
N          0.33070        0.93880        0.70120
C         -0.96390        1.55020        0.97110
C         -2.06340        0.69340        0.37780
N         -2.06460       -0.62930        1.03860
C         -0.76040       -1.01930        1.60370
C          0.39830       -0.51970        0.75840
S         -2.78110       -1.82520        0.11170
O         -2.30640       -1.79240       -1.26340
O         -2.68310       -3.05220        0.87770
C         -4.44520       -1.23340        0.13270
C         -5.01680       -0.80400       -1.04330
C         -6.34840       -0.33360       -1.03480
C         -7.07160       -0.30900        0.19930
C         -6.43840       -0.76380        1.38260
C         -5.14250       -1.22230        1.35910
C         -8.40120        0.16480        0.21130
C         -8.98330        0.59560       -0.95960
C         -8.28230        0.57590       -2.18240
C         -6.98550        0.11750       -2.21390
Cl       -10.61410        1.17760       -0.94750
H          8.23220       -1.82090       -3.05800
H          6.39380       -0.25620       -2.75010
H          6.62010       -1.11240        1.47390
H          8.46470       -2.60530        0.96800
H          5.62090        0.54940        1.65790
H          5.37300        2.05180        0.79810
H          3.31130        0.07840        1.81040
H          3.31570        1.84060        1.89840
H          2.50800        0.05820       -0.40090
H          3.72410        2.81870       -0.66800
H          2.81150        2.05690       -1.94530
H          5.40240        1.69730       -1.99180
H          4.35190        0.30230       -2.26320
H         -0.95930        2.53380        0.50870
H         -1.11960        1.68750        2.04390
H         -1.89120        0.59050       -0.69720
H         -3.03390        1.16500        0.53210
H         -0.69000       -0.60660        2.61020
H         -0.73500       -2.10300        1.68830
H          1.33160       -0.83580        1.22220
H          0.33850       -0.96320       -0.23920
H         -4.44550       -0.83670       -1.96200
H         -6.99290       -0.74850        2.31240
H         -4.65360       -1.57890        2.25460
H         -8.96000        0.18790        1.13720
H         -8.77350        0.92090       -3.08080
H         -6.43980        0.09730       -3.14860
