57
omegacsd_SPIRIL_18.xyz
C         -1.15380        0.00170        0.61730
C         -2.30320       -0.96790        0.86540
C         -2.81450       -0.88020        2.30630
O         -2.13860       -0.76980        3.31420
N         -4.17490       -1.00460        2.23610
C         -4.60330       -1.28900        0.87210
N         -3.52920       -0.76360        0.03470
C         -3.75060        0.58070       -0.40510
C         -4.40040        1.55150        0.36610
C         -4.57540        2.84090       -0.13350
C         -4.09250        3.18040       -1.39560
C         -3.44470        2.21640       -2.16650
C         -3.28480        0.92330       -1.67680
C         -1.80250       -2.41520        0.65100
C         -0.32230       -2.49530        1.00420
N          0.51050       -1.70760        0.08220
C          1.03280       -2.51760       -1.00720
C          1.99650       -1.71610       -1.88580
C          2.99490       -1.00650       -1.03160
C          3.35190        0.29150       -1.08190
C          4.26820        0.82590       -0.05410
C          4.16190        0.40090        1.27840
C          5.02110        0.88210        2.26120
C          5.98880        1.80850        1.90430
C          6.11300        2.27180        0.60380
C          5.24410        1.78180       -0.36700
F          6.82120        2.28340        2.84950
C          2.87060        1.26140       -2.12410
C         -0.20170       -0.53600       -0.43510
H         -0.61860        0.11650        1.56190
H         -1.52790        0.98470        0.33770
H         -4.69560       -1.27900        3.05450
H         -4.70780       -2.36450        0.70670
H         -5.54300       -0.79680        0.63180
H         -4.75000        1.30440        1.35950
H         -5.07840        3.58310        0.47150
H         -4.22490        4.18360       -1.77630
H         -3.07760        2.46610       -3.15280
H         -2.80920        0.15590       -2.27230
H         -1.96050       -2.66610       -0.39960
H         -2.38260       -3.12200        1.24890
H          0.02530       -3.52790        0.97290
H         -0.18180       -2.13900        2.02620
H          1.57390       -3.35700       -0.56560
H          0.22950       -2.93480       -1.64000
H          2.49300       -2.41870       -2.56110
H          1.44390       -1.02080       -2.51470
H          3.45430       -1.61750       -0.26090
H          3.37390       -0.29140        1.54510
H          4.93720        0.56570        3.29080
H          6.87580        2.99920        0.36650
H          5.34420        2.13680       -1.38350
H          2.51160        2.17970       -1.65790
H          3.68170        1.54050       -2.79900
H          2.07270        0.84710       -2.73490
H         -0.77190       -0.78610       -1.34590
H          0.52940        0.22600       -0.71000
