66
omegapdb_1z1r_18.xyz
C          0.92400        1.24100        0.38080
C          1.47490        0.51770       -0.86550
C          0.64390       -0.68710       -1.20420
C          0.36960       -1.66340       -0.23910
C         -0.56280       -2.66790       -0.48050
C         -1.23370       -2.71530       -1.70520
C         -0.90580       -1.80370       -2.70610
C          0.02200       -0.79640       -2.44980
O         -2.25190       -3.60930       -1.93580
C         -3.34220       -3.41560       -1.01220
C         -3.94030       -2.02390       -1.17220
C         -4.80240       -1.56990        0.01290
C         -4.08410       -1.74650        1.33550
O         -4.28180       -2.73520        2.03450
N         -3.18490       -0.79140        1.70930
C         -2.71960        0.34780        0.96190
C         -1.22060        0.48420        1.25850
O         -0.72680       -0.04640        2.25200
N         -0.52480        1.23450        0.37620
C         -3.45240        1.63810        1.34720
C         -3.16050        2.75380        0.36270
O         -2.88700        2.52890       -0.81330
N         -3.25150        4.00770        0.85940
C          1.42540        2.67770        0.52100
O          0.93530        3.51780       -0.51630
C          2.94360        2.77130        0.60730
N          3.43130        1.99370        1.74340
S          4.98930        1.40940        1.65030
O          5.31460        0.98940        2.99690
O          5.84690        2.32180        0.91770
C          4.70720       -0.00110        0.61840
C          5.14840        0.01980       -0.70190
C          4.84640       -1.06450       -1.52600
C          4.12090       -2.14410       -1.02620
C          3.70710       -2.15700        0.30760
C          3.99440       -1.08060        1.14080
H          1.22100        0.69090        1.27240
H          1.46670        1.18920       -1.72950
H          2.51300        0.23940       -0.67910
H          0.83580       -1.60350        0.73550
H         -0.79580       -3.39010        0.29040
H         -1.42620       -1.86060       -3.65240
H          0.22560       -0.05550       -3.21380
H         -4.06250       -4.19530       -1.24880
H         -2.99830       -3.57670        0.00960
H         -4.52920       -1.98030       -2.08890
H         -3.11410       -1.32580       -1.30470
H         -5.10320       -0.53290       -0.14480
H         -5.70320       -2.17620        0.08350
H         -2.61580       -1.02160        2.51580
H         -2.85240        0.19690       -0.10630
H         -1.02260        1.61560       -0.41900
H         -4.52740        1.44630        1.32010
H         -3.19800        1.92370        2.36900
H         -3.08100        4.78190        0.24140
H         -3.45230        4.17970        1.82580
H          0.98720        3.08400        1.43480
H          1.38150        3.27170       -1.33390
H          3.38770        2.35290       -0.29840
H          3.24190        3.81960        0.65560
H          3.31240        2.43260        2.65110
H          5.71330        0.86930       -1.05920
H          5.17500       -1.06320       -2.55620
H          3.87790       -2.97700       -1.67130
H          3.15520       -3.00320        0.69220
H          3.67560       -1.06710        2.17430
