66
omegapdb_1z1r_19.xyz
C          0.38110       -0.03080        0.01780
C          0.71670       -1.14360       -0.98470
C         -0.40260       -2.14500       -0.96110
C         -1.36930       -2.18550       -1.97200
C         -2.51850       -2.96490       -1.84250
C         -2.72100       -3.70310       -0.67600
C         -1.72920       -3.73550        0.30490
C         -0.58420       -2.96110        0.16070
O         -3.86550       -4.42200       -0.45950
C         -5.06390       -3.62970       -0.42990
C         -5.11170       -2.61460        0.70250
C         -4.35170       -1.31740        0.44900
C         -4.70620       -0.25700        1.47930
O         -5.44630       -0.48540        2.42470
N         -4.17240        0.98700        1.27120
C         -3.17350        1.31060        0.29240
C         -1.75920        0.92450        0.73320
O         -1.36120        1.08800        1.87540
N         -0.95140        0.49030       -0.29070
C         -3.17620        2.82440        0.01560
C         -2.84420        3.61420        1.26800
O         -3.61690        3.66350        2.21490
N         -1.65820        4.28090        1.24670
C          1.33440        1.16780        0.08000
O          1.22780        1.98760       -1.07950
C          2.79840        0.79960        0.23350
N          3.32180        0.31930       -1.03770
S          4.72930       -0.53910       -1.03160
O          4.53140       -1.62760       -0.09560
O          5.06210       -0.76030       -2.42170
C          5.94320        0.55010       -0.33270
C          6.18880        0.51210        1.03850
C          7.10120        1.41340        1.58320
C          7.74890        2.33690        0.76480
C          7.49490        2.35890       -0.60680
C          6.58600        1.46540       -1.16550
H          0.34400       -0.46000        1.02320
H          1.66310       -1.60000       -0.70030
H          0.84790       -0.72400       -1.98320
H         -1.21640       -1.60660       -2.87660
H         -3.25910       -2.98800       -2.63050
H         -1.89010       -4.34480        1.18360
H          0.16650       -2.96850        0.94210
H         -5.21290       -3.13850       -1.39650
H         -5.85560       -4.36380       -0.30140
H         -6.15790       -2.35830        0.87510
H         -4.76420       -3.08440        1.62260
H         -3.27070       -1.47410        0.46220
H         -4.59410       -0.94080       -0.54910
H         -4.31970        1.66850        2.00790
H         -3.40700        0.80830       -0.64770
H         -1.43790        0.02290       -1.04560
H         -2.47900        3.04210       -0.79300
H         -4.17840        3.11170       -0.29900
H         -0.95910        4.05220        0.56380
H         -1.34590        4.66810        2.12160
H          1.04180        1.73860        0.96740
H          0.28920        1.97540       -1.31080
H          3.35340        1.67060        0.59500
H          2.90000        0.00190        0.96930
H          3.29700        1.00940       -1.77920
H          5.69350       -0.22920        1.64920
H          7.30920        1.39000        2.64390
H          8.45820        3.03180        1.19240
H          8.00940        3.06720       -1.24120
H          6.39190        1.45060       -2.22890
