41
omegacsd_CEJTIU_06.xyz
C         -5.41920       -0.22000       -0.02610
N         -4.24900       -0.83940        0.56400
C         -4.43470       -1.32710        1.91600
C         -3.01600       -0.26340        0.26810
C         -2.84570        0.58500       -0.84130
C         -1.60780        1.12090       -1.17930
C         -0.48760        0.83740       -0.39670
C         -0.64090        0.02030        0.72560
C         -1.87810       -0.51640        1.05670
N          0.80450        1.30870       -0.68750
C          1.13830        2.31800       -1.53500
O          0.36680        3.08270       -2.08470
N          2.53810        2.46420       -1.70140
C          3.54250        1.53980       -1.93600
O          4.67740        1.92630       -2.16620
C          3.20390        0.06560       -1.90190
C          3.21420       -0.50510       -0.50150
C          4.06680        0.00580        0.48320
C          4.06420       -0.53580        1.76740
C          3.21690       -1.59710        2.08130
C          2.36850       -2.11480        1.10400
C          2.36410       -1.56760       -0.17700
H         -5.52840        0.83590        0.25200
H         -5.38220       -0.28690       -1.11130
H         -6.30160       -0.76110        0.30470
H         -4.29830       -0.54500        2.67390
H         -3.74080       -2.13720        2.13070
H         -5.44090       -1.72740        2.00550
H         -3.68700        0.84000       -1.46630
H         -1.51790        1.77510       -2.03110
H          0.21490       -0.19080        1.35520
H         -1.94460       -1.13330        1.93920
H          1.55280        0.89920       -0.14690
H          2.80260        3.40270       -1.97100
H          3.97760       -0.41640       -2.49900
H          2.23640       -0.12580       -2.36490
H          4.73630        0.82110        0.23920
H          4.72520       -0.12920        2.52050
H          3.21720       -2.01590        3.07810
H          1.70380       -2.93540        1.33810
H          1.68800       -1.95720       -0.92800
