36
omegapdb_1qxw_30.xyz
C          4.73020        0.63760        0.67210
C          4.74920        1.19290       -0.73660
C          3.87120        0.03080       -0.41240
N          2.44680        0.20650       -0.42430
C          1.78120       -0.57660        0.60190
C          0.29350       -0.25340        0.64470
C         -0.39900       -0.45540       -0.71160
N         -0.37020       -1.85250       -1.14050
C         -1.82870        0.09020       -0.77050
C         -2.85890       -0.59980        0.12220
C         -4.29550       -0.32930       -0.32190
C         -4.66630        1.14800       -0.27660
O         -0.21840       -1.10170        1.65190
O          0.10280        1.10860        0.99140
H          4.22030        1.22690        1.42050
H          5.59760        0.09780        1.02010
H          5.62480        1.02290       -1.34290
H          4.26190        2.14340       -0.89900
H          4.18370       -0.93460       -0.78790
H          2.22060        1.18560       -0.28090
H          2.18160       -0.40240        1.61170
H          1.91400       -1.63630        0.38610
H          0.18760        0.11530       -1.42990
H          0.54220       -2.06850       -1.52190
H         -0.49100       -2.45600       -0.33500
H         -1.80780        1.15850       -0.56210
H         -2.14730       -0.03920       -1.80720
H         -2.68750       -1.67820        0.11570
H         -2.76680       -0.24700        1.15640
H         -4.42370       -0.71210       -1.33660
H         -4.97960       -0.89410        0.31380
H         -5.71390        1.29880       -0.53210
H         -4.50330        1.55580        0.72170
H         -4.06830        1.73080       -0.97460
H         -1.16520       -0.92700        1.70800
H          0.48200        1.21360        1.87350
