25
omegapdb_1m5f_07.xyz
O         -1.41220       -3.59690       -1.51680
C         -0.67110       -2.73700       -0.80130
O          0.43810       -3.01620       -0.40340
C         -1.30930       -1.42890       -0.54510
N         -2.50480       -1.17620       -1.07160
O         -2.81300        0.09650       -0.68160
C         -1.80570        0.60100        0.07370
C         -0.81800       -0.33920        0.20410
C          0.48720       -0.23890        0.90790
C          1.63530        0.11220       -0.05260
N          2.89450        0.07370        0.69230
C          1.39220        1.53270       -0.55020
O          0.63330        1.80260       -1.45060
O          2.03790        2.46600        0.16800
C         -1.95120        2.00130        0.52800
H         -2.24830       -3.15160       -1.73360
H          0.44290        0.51360        1.69740
H          0.71930       -1.20120        1.36370
H          1.59710       -0.56570       -0.90470
H          3.67660       -0.04590        0.05930
H          2.90610       -0.72170        1.31890
H          2.61030        1.94310        0.77200
H         -2.94040        2.17240        0.94760
H         -1.20210        2.22160        1.28470
H         -1.79460        2.68290       -0.30640
