36
omegapdb_1qxw_03.xyz
C          3.80260        2.00240       -0.18870
C          4.95760        1.13440        0.24430
C          3.54660        0.67210        0.46050
N          3.08360       -0.36940       -0.40800
C          1.65120       -0.39280       -0.65890
C          0.83140       -1.14580        0.38400
C         -0.64460       -1.31150        0.00060
N         -1.18800       -2.28320        0.95610
C         -1.39670        0.01230       -0.06900
C         -2.85190       -0.14400       -0.49150
C         -3.57080        1.19210       -0.62830
C         -5.02970        1.02910       -1.03310
O          0.82840       -0.47900        1.64570
O          1.41820       -2.41310        0.51930
H          3.59540        2.89620        0.37860
H          3.60570        2.05590       -1.24810
H          5.53130        1.44140        1.10480
H          5.50480        0.62820       -0.53500
H          3.18270        0.72170        1.48220
H          3.39170       -1.28160       -0.09330
H          1.30610        0.63780       -0.72150
H          1.46810       -0.87610       -1.62170
H         -0.65940       -1.79090       -0.98140
H         -1.33320       -1.82230        1.84770
H         -2.08280       -2.63480        0.64390
H         -1.33850        0.49830        0.90740
H         -0.89640        0.67360       -0.78020
H         -3.38840       -0.75770        0.23650
H         -2.90000       -0.67780       -1.44620
H         -3.04860        1.80530       -1.36590
H         -3.50690        1.72950        0.32030
H         -5.57320        0.44130       -0.29350
H         -5.53040        1.99110       -1.12850
H         -5.11070        0.51370       -1.99000
H          1.65170       -0.74460        2.07070
H          0.69280       -2.95230        0.88730
