50
omegapdb_1xom_20.xyz
O          6.81410        1.19790        0.17760
C          5.92870        0.48030       -0.56520
O          6.11080        0.34400       -1.74790
C          4.74570       -0.07370        0.20610
C          3.95090        1.08850        0.85150
C          2.49840        0.67250        1.02980
C          1.80290        0.52940       -0.35330
C          2.81240       -0.03670       -1.38360
C          3.84840       -0.92080       -0.70190
C          1.40580        1.86910       -0.79340
N          1.10930        2.95370       -1.12890
C          0.55250       -0.31650       -0.17920
C          0.48680       -1.65200       -0.56820
C         -0.66130       -2.40940       -0.32110
C         -1.76360       -1.84580        0.32050
O         -2.91290       -2.50870        0.61330
C         -2.96710       -3.87280        0.22530
C         -1.71280       -0.48890        0.70110
C         -0.56060        0.24540        0.45440
O         -2.73370        0.13040        1.35560
C         -4.03120        0.14510        0.70570
C         -4.73280        1.36290        1.27730
C         -4.05850        2.54770        0.56370
C         -3.52100        1.97690       -0.77390
C         -3.90750        0.48870       -0.76980
H          6.51500        1.21410        1.09410
H          5.14620       -0.70440        1.00500
H          4.38260        1.36820        1.81380
H          3.99280        1.97810        0.21780
H          2.44140       -0.29160        1.53840
H          1.94540        1.38970        1.63580
H          2.27230       -0.56680       -2.16650
H          3.33190        0.78790       -1.87270
H          4.46500       -1.41710       -1.44870
H          3.35540       -1.69160       -0.10910
H          1.31620       -2.12720       -1.07140
H         -0.68060       -3.44280       -0.63170
H         -2.18850       -4.45420        0.72120
H         -3.94160       -4.23150        0.53830
H         -2.86850       -3.97970       -0.85590
H         -0.56420        1.28600        0.75540
H         -4.53840       -0.79770        0.89730
H         -4.64490        1.40320        2.36130
H         -5.79190        1.30270        1.02190
H         -3.23750        2.92740        1.16760
H         -4.75400        3.37000        0.40870
H         -3.93580        2.49290       -1.63730
H         -2.43870        2.08480       -0.82730
H         -3.19690       -0.14570       -1.29890
H         -4.88720        0.33810       -1.22700
