25
omegapdb_1m5f_15.xyz
O         -0.14480       -2.49440       -1.43490
C         -1.43770       -2.10740       -1.58500
O         -2.21410       -2.66830       -2.31740
C         -1.74990       -0.93080       -0.74180
N         -2.98660       -0.43460       -0.84300
O         -3.02130        0.61490        0.03680
C         -1.82920        0.74390        0.65710
C         -0.96520       -0.22190        0.20410
C          0.45750       -0.38040        0.61870
C          1.37140        0.60540       -0.15220
N          1.35640        0.48330       -1.59490
C          2.77770        0.35500        0.33220
O          3.56420       -0.39830       -0.19060
O          3.03520        1.02160        1.48090
C         -1.69870        1.84230        1.64300
H         -0.04650       -3.27010       -2.00920
H          0.79580       -1.39590        0.42680
H          0.55150       -0.18740        1.68900
H          1.08580        1.62140        0.12200
H          1.75840       -0.41090       -1.85150
H          0.39960        0.48960       -1.92730
H          3.92800        0.75170        1.74600
H         -0.76150        1.73970        2.18470
H         -2.52040        1.81820        2.35640
H         -1.70570        2.81360        1.14990
