45
omegacsd_SEYMIS_05.xyz
O         -5.02890       -1.70940        1.43200
N         -5.13310       -0.91280        0.31050
C         -3.89110       -0.57020       -0.00620
C         -2.95370       -1.14290        0.90210
C         -1.48060       -1.00490        1.00040
O         -0.77580       -1.84250        1.55250
N         -1.00360        0.14680        0.44730
C          0.34200        0.46960        0.27350
C          0.76770        1.55460       -0.49590
N          2.12890        1.59130       -0.46240
C          2.92630        2.59470       -1.14970
C          2.58390        0.55130        0.30920
C          1.48250       -0.16800        0.78380
C          4.00300        0.32280        0.53320
O          4.90930        1.00060        0.07690
O          4.19160       -0.75070        1.32730
C          5.57060       -1.07890        1.58660
C          6.15670       -1.89030        0.45300
C         -3.73320       -1.85060        1.77840
C         -3.43840       -2.67560        2.97080
C         -3.66310        0.28340       -1.17850
C         -2.68170       -0.05010       -2.12200
C         -2.46350        0.77180       -3.22400
C         -3.22510        1.92720       -3.39820
C         -4.21080        2.25530       -2.46860
C         -4.42950        1.43990       -1.36150
H         -1.67450        0.74810       -0.00520
H          0.20290        2.28500       -1.05120
H          3.52480        3.15530       -0.43870
H          2.23960        3.26040       -1.66480
H          3.59440        2.12360       -1.86360
H          1.51670       -1.03710        1.41150
H          6.12980       -0.15970        1.74450
H          5.54000       -1.65000        2.51020
H          7.17410       -2.19050        0.70100
H          6.18440       -1.30150       -0.46000
H          5.56430       -2.78640        0.28200
H         -2.37080       -2.64050        3.16330
H         -3.98920       -2.30860        3.83520
H         -3.72930       -3.71070        2.79680
H         -2.10110       -0.95420       -1.99320
H         -1.70680        0.50500       -3.94900
H         -3.05480        2.56390       -4.25540
H         -4.80630        3.14780       -2.60310
H         -5.18800        1.68710       -0.63130
