41
omegacsd_CEJTIU_00.xyz
C         -6.27430       -0.88770        1.08570
N         -5.69180        0.35350        0.61720
C         -6.50000        1.07760       -0.34280
C         -4.31340        0.35960        0.40800
C         -3.69560        1.34010       -0.39050
C         -2.31730        1.37260       -0.54830
C         -1.49520        0.42540        0.06690
C         -2.09040       -0.56950        0.84520
C         -3.47270       -0.59880        1.00090
N         -0.11260        0.53690       -0.15100
C          0.85500       -0.26970        0.33660
O          0.73280       -1.24680        1.05520
N          2.16500        0.11640       -0.06810
C          2.56350        1.15520       -0.85800
O          1.79780        1.96390       -1.37540
C          4.06790        1.28470       -1.05860
C          4.89460        0.13530       -0.56570
C          5.41150        0.13280        0.73340
C          6.13310       -0.95980        1.20980
C          6.34530       -2.06570        0.38960
C          5.83540       -2.07340       -0.90780
C          5.11360       -0.98050       -1.37990
H         -6.08910       -1.72980        0.40630
H         -5.88390       -1.14800        2.06720
H         -7.34780       -0.75080        1.18670
H         -7.54580        0.97060       -0.06720
H         -6.36860        0.71630       -1.37100
H         -6.26390        2.13940       -0.32030
H         -4.28280        2.09200       -0.89360
H         -1.87330        2.14300       -1.16710
H         -1.47580       -1.31750        1.31740
H         -3.88890       -1.38960        1.60510
H          0.22840        1.29760       -0.73590
H          2.87740       -0.50030        0.29690
H          4.21060        1.44900       -2.12630
H          4.35450        2.21170       -0.55900
H          5.24830        0.99260        1.37170
H          6.52830       -0.94630        2.21620
H          6.90520       -2.91420        0.75730
H          5.99850       -2.92830       -1.54940
H          4.71620       -0.98920       -2.38740
