39
omegacsd_FIBREN_02.xyz
N         -2.80700       -2.12410       -0.55400
C         -1.68850       -1.91060       -1.26620
N         -0.89570       -0.81880       -1.22720
C         -1.21170        0.19110       -0.41220
C         -2.36020        0.07520        0.38100
C         -3.07430       -1.09850        0.23590
O         -4.13810       -1.03150        1.09650
C         -3.99000        0.18520        1.70920
N         -2.95560        0.88840        1.33090
C         -5.01240        0.54730        2.71410
N         -0.42340        1.30230       -0.38950
C          0.94330        1.21580       -0.88060
C          1.56440        2.60250       -0.76010
C          2.90020        2.66590       -1.44850
O          3.20440        2.04750       -2.44190
O          3.73320        3.53780       -0.83850
C          1.76400        0.18330       -0.13940
C          1.71240        0.10640        1.25470
C          2.48180       -0.82970        1.94070
C          3.31220       -1.70010        1.23600
C          3.36590       -1.63030       -0.15480
C          2.59370       -0.69370       -0.83860
C         -1.25620       -2.99190       -2.20550
H         -5.03400       -0.18700        3.51720
H         -6.00050        0.57490        2.25830
H         -4.77290        1.52420        3.12050
H         -0.60340        1.92610        0.38370
H          0.90730        0.93590       -1.93210
H          0.91530        3.33670       -1.24400
H          1.67990        2.89110        0.28440
H          4.54520        3.53410       -1.36860
H          1.05670        0.76740        1.80950
H          2.43040       -0.88320        3.01970
H          3.90690       -2.43080        1.76680
H          4.00190       -2.30890       -0.70690
H          2.62620       -0.63930       -1.91860
H         -1.28020       -2.62700       -3.23160
H         -0.22960       -3.28190       -1.98810
H         -1.91150       -3.85200       -2.11240
