50
omegapdb_1xom_21.xyz
O          5.17220        3.32260       -0.09770
C          4.97060        2.01230       -0.40560
O          5.49400        1.53820       -1.38160
C          4.00730        1.27260        0.50240
C          2.56910        1.55300        0.00160
C          2.20320        0.56240       -1.09730
C          2.08670       -0.87800       -0.52960
C          3.00730       -1.01780        0.71510
C          4.29530       -0.23420        0.51060
C          2.57330       -1.80780       -1.55060
N          2.98670       -2.55510       -2.35470
C          0.67180       -1.27010       -0.13900
C          0.31140       -2.61400       -0.05110
C         -0.95640       -2.99070        0.39180
C         -1.89510       -2.02650        0.76240
O         -3.14220       -2.29670        1.22970
C         -3.47590       -3.66970        1.36700
C         -1.54790       -0.66570        0.65730
C         -0.27850       -0.30870        0.21700
O         -2.40830        0.32780        1.03010
C         -3.59660        0.45530        0.21070
C         -3.22480        0.71830       -1.24090
C         -2.71080        2.16990       -1.24240
C         -3.31990        2.83180        0.02020
C         -4.23230        1.76270        0.64180
H          4.70460        3.52400        0.72100
H          4.10210        1.67020        1.51610
H          2.48800        2.57610       -0.36960
H          1.87800        1.46530        0.84010
H          2.98490        0.58570       -1.85770
H          1.27070        0.83340       -1.59120
H          2.45910       -0.64500        1.58300
H          3.20250       -2.07530        0.89240
H          5.02160       -0.47090        1.28740
H          4.74710       -0.51040       -0.44340
H          1.01530       -3.38240       -0.34380
H         -1.19980       -4.04070        0.44600
H         -4.48370       -3.69040        1.76730
H         -2.79810       -4.17120        2.05910
H         -3.45540       -4.18040        0.40330
H         -0.07090        0.75030        0.15970
H         -4.22750       -0.42010        0.35300
H         -2.50070        0.00060       -1.62530
H         -4.13030        0.62640       -1.84290
H         -1.62310        2.18860       -1.19530
H         -2.99840        2.68870       -2.15470
H         -2.53280        3.09360        0.72390
H         -3.86510        3.74370       -0.21460
H         -4.31080        1.83490        1.72470
H         -5.23700        1.81340        0.21940
