66
omegapdb_1z1r_29.xyz
C          0.96620       -1.20430        1.92450
C          0.38380       -2.62790        1.98430
C         -0.92990       -2.76320        1.28260
C         -2.13810       -2.60930        1.97190
C         -3.35540       -2.61100        1.29910
C         -3.38940       -2.77290       -0.08770
C         -2.19450       -2.99120       -0.78240
C         -0.98310       -2.97870       -0.09750
O         -4.62250       -2.75720       -0.67320
C         -4.72330       -2.17620       -1.97520
C         -4.89960       -0.66810       -1.92560
C         -3.80270        0.07730       -1.16800
C         -4.14440        0.25760        0.30150
O         -5.30250        0.22500        0.70030
N         -3.12950        0.57220        1.15940
C         -1.70080        0.43750        1.01060
C         -1.14300        0.23760        2.42790
O         -1.79220        0.65510        3.38300
N          0.13630       -0.21940        2.62280
C         -1.06310        1.73080        0.45850
C         -1.03160        1.75450       -1.05310
O         -0.54150        0.83430       -1.70070
N         -1.54780        2.86300       -1.63630
C          1.35200       -0.72760        0.52530
O          2.06650       -1.79460       -0.10850
C          2.25940        0.49660        0.59550
N          3.52500        0.09590        1.19800
S          4.63950        1.27890        1.49660
O          5.81870        0.60150        1.98800
O          3.95480        2.30400        2.25570
C          5.01700        1.95890       -0.09990
C          4.30310        3.06370       -0.56010
C          4.56780        3.55150       -1.83820
C          5.52840        2.93620       -2.63890
C          6.23820        1.83390       -2.16160
C          5.98460        1.33560       -0.88720
H          1.89640       -1.22070        2.49600
H          1.12290       -3.30420        1.55670
H          0.26960       -2.88350        3.03940
H         -2.12750       -2.46650        3.04600
H         -4.29000       -2.45510        1.82040
H         -2.19500       -3.17480       -1.84650
H         -0.06210       -3.14190       -0.64130
H         -5.60020       -2.63760       -2.42520
H         -3.85990       -2.44260       -2.58500
H         -5.85270       -0.42690       -1.45780
H         -4.93590       -0.32120       -2.96050
H         -2.82350       -0.38020       -1.30350
H         -3.72070        1.09190       -1.56530
H         -3.41860        0.72510        2.11940
H         -1.45210       -0.40540        0.36800
H          0.34780       -0.15010        3.61030
H         -1.59890        2.57810        0.88390
H         -0.02460        1.80270        0.77900
H         -1.53480        2.93050       -2.63920
H         -1.98080        3.58810       -1.09660
H          0.47470       -0.47740       -0.06760
H          2.02190       -1.63330       -1.05800
H          2.38680        0.90530       -0.41400
H          1.82620        1.26290        1.23400
H          3.94890       -0.70220        0.73500
H          3.58120        3.53880        0.08890
H          4.02860        4.41370       -2.20540
H          5.73220        3.32070       -3.62860
H          6.99360        1.36800       -2.77910
H          6.53990        0.49760       -0.48940
