50
omegapdb_1xom_22.xyz
O          7.13250       -0.61150       -0.44520
C          6.13080        0.22870       -0.06650
O          6.27320        0.93450        0.89920
C          4.85790        0.13120       -0.88480
C          4.01460       -1.03790       -0.31680
C          3.15320       -0.53070        0.83270
C          2.05410        0.42490        0.30540
C          2.57530        1.16160       -0.96170
C          4.06480        1.44320       -0.83780
C          1.79330        1.43030        1.33810
N          1.59450        2.24950        2.15420
C          0.74470       -0.26740       -0.03590
C          0.64820       -1.64080       -0.24740
C         -0.55980       -2.22390       -0.63970
C         -1.70130       -1.44170       -0.81850
O         -2.92050       -1.91370       -1.17640
C         -3.01020       -3.31350       -1.38460
C         -1.61010       -0.05210       -0.60680
C         -0.40080        0.51320       -0.22930
O         -2.71760        0.72630       -0.80580
C         -3.30260        1.18290        0.42170
C         -3.92250        0.08620        1.27770
C         -4.81110        0.90440        2.21050
C         -5.46010        1.94370        1.27460
C         -4.46810        2.11470        0.10040
H          6.86240       -1.07520       -1.24600
H          5.12050       -0.10240       -1.91970
H          4.66430       -1.84710        0.02040
H          3.38540       -1.44410       -1.10940
H          3.79120        0.00940        1.53350
H          2.69250       -1.34520        1.38950
H          2.00300        2.07820       -1.10160
H          2.37330        0.52580       -1.82640
H          4.40130        2.11040       -1.63070
H          4.27060        1.94520        0.10870
H          1.50350       -2.28560       -0.10670
H         -0.59890       -3.29210       -0.78830
H         -2.34960       -3.63660       -2.19080
H         -4.04070       -3.50610       -1.66260
H         -2.76860       -3.86560       -0.47480
H         -0.36890        1.58530       -0.07620
H         -2.53530        1.70440        1.00490
H         -3.18430       -0.52710        1.79270
H         -4.52270       -0.55630        0.63070
H         -4.19080        1.40620        2.95520
H         -5.54230        0.30310        2.74680
H         -6.41400        1.56930        0.90670
H         -5.66090        2.88170        1.78750
H         -4.13890        3.14220       -0.03520
H         -4.90490        1.78030       -0.83970
