34
omegapdb_2f7p_17.xyz
C         -1.26440       -0.94200       -0.28140
N          0.07570       -0.55680        0.14330
C          1.02420       -0.41470       -0.96790
C          2.35190        0.04550       -0.44150
C          3.11510       -0.79680        0.37210
C          4.33230       -0.36630        0.89060
C          4.79890        0.91680        0.60380
C          4.04380        1.76440       -0.20280
C          2.82500        1.32820       -0.72060
C         -2.06820       -1.43220        0.96420
O         -1.22370       -1.77960        2.03630
C         -2.96480       -0.24500        1.30790
O         -2.16850        0.78010        1.87840
C         -3.42330        0.18160       -0.07290
O         -4.11660        1.40960       -0.05650
C         -2.11580        0.20910       -0.86740
S         -2.31870        0.04580       -2.66770
H         -1.14670       -1.75850       -0.99640
H          0.01090        0.33350        0.63230
H          1.11640       -1.39530       -1.43990
H          0.66780        0.28380       -1.73310
H          2.74790       -1.79060        0.59590
H          4.91740       -1.02790        1.51470
H          5.74510        1.25180        1.00580
H          4.40080        2.76000       -0.42790
H          2.23700        1.98520       -1.34980
H         -2.68480       -2.29110        0.68810
H         -0.32900       -1.59120        1.68830
H         -3.80040       -0.50790        1.96000
H         -1.67080        0.32950        2.57590
H         -4.05760       -0.62110       -0.46570
H         -4.61630        1.46630       -0.87680
H         -1.62030        1.15650       -0.65740
H         -2.82050        1.26890       -2.87610
