39
omegacsd_FIBREN_12.xyz
N         -1.87560        2.14260        0.60890
C         -0.70030        1.95560       -0.01530
N         -0.18730        0.78300       -0.43560
C         -0.86290       -0.34980       -0.22920
C         -2.10050       -0.27480        0.42190
C         -2.50790        0.99520        0.78690
O         -3.72440        0.86390        1.40400
C         -3.96750       -0.48430        1.37210
N         -3.04380       -1.21370        0.80510
C         -5.23610       -0.94000        1.98000
N         -0.32940       -1.51980       -0.66120
C          1.07570       -1.64000       -1.03220
C          1.33080       -1.28430       -2.50850
C          0.91850        0.09450       -2.95620
O          1.64770        1.05320       -3.07320
O         -0.38950        0.12130       -3.30220
C          1.98430       -0.96160       -0.02220
C          1.81960       -1.29620        1.32570
C          2.62640       -0.72830        2.30620
C          3.61870        0.18330        1.94800
C          3.79220        0.51590        0.60710
C          2.98130       -0.05210       -0.37490
C          0.15770        3.15720       -0.25700
H         -6.08540       -0.48170        1.47630
H         -5.30010       -2.01920        1.89010
H         -5.27760       -0.65840        3.03070
H         -0.83360       -2.35310       -0.40690
H          1.28630       -2.71040       -0.96730
H          0.77620       -2.00230       -3.11050
H          2.39260       -1.40020       -2.71650
H         -0.57110        1.04260       -3.54330
H          1.04350       -1.99710        1.60990
H          2.48210       -0.99650        3.34400
H          4.24680        0.63010        2.70640
H          4.55360        1.22850        0.32000
H          3.10390        0.25360       -1.40330
H          0.97220        3.17440        0.46840
H         -0.42690        4.06590       -0.15030
H          0.60940        3.10310       -1.24550
