24
omegapdb_1gs5_19.xyz
C         -0.55550       -0.98890        0.05270
C         -1.47590       -1.98670        0.73840
O         -2.53440       -1.68440        1.23080
O         -1.02290       -3.25540        0.80250
C          0.71470       -0.79440        0.88950
C          1.65400        0.21580        0.25780
C          2.94620        0.33790        1.03020
O          3.23300       -0.31710        1.99910
O          3.81470        1.26410        0.54770
N         -1.29720        0.23560       -0.12430
C         -1.18300        0.96000       -1.27550
O         -0.30820        0.73490       -2.10440
C         -2.20280        2.05670       -1.44690
H         -0.27950       -1.35980       -0.93890
H         -0.17320       -3.31700        0.34980
H          0.43710       -0.46580        1.89170
H          1.24170       -1.74200        1.00930
H          1.88240       -0.05870       -0.77400
H          1.17950        1.19700        0.20770
H          3.42340        1.68350       -0.22770
H         -2.13900        0.30600        0.42930
H         -1.69970        2.94950       -1.80630
H         -2.73970        2.28140       -0.52900
H         -2.91600        1.74800       -2.20910
