34
omegapdb_2f7p_20.xyz
C         -0.76300        0.41050       -0.04000
N         -0.27140        1.69480        0.40530
C          0.98540        1.61620        1.14890
C          2.08220        0.82100        0.47750
C          2.69700       -0.24840        1.13120
C          3.69610       -0.99290        0.50520
C          4.08800       -0.67690       -0.79350
C          3.48040        0.38790       -1.45860
C          2.48630        1.12870       -0.82520
C         -0.96250       -0.62060        1.07580
O         -1.60810       -0.01940        2.17500
C         -1.89620       -1.67810        0.41160
O         -2.87380       -2.10330        1.34250
C         -2.53210       -0.95760       -0.80800
O         -3.92340       -1.22530       -0.83510
C         -2.17210        0.50460       -0.60040
S         -2.37370        1.44480       -2.14050
H         -0.11320       -0.06120       -0.79700
H         -0.14820        2.28410       -0.41180
H          0.76840        1.18260        2.12600
H          1.32150        2.64000        1.32120
H          2.39140       -0.49530        2.14100
H          4.16260       -1.81730        1.02730
H          4.85980       -1.25380       -1.28400
H          3.78190        0.64000       -2.46630
H          2.01820        1.95350       -1.35030
H         -0.01690       -1.07110        1.38540
H         -2.28390       -0.66700        2.43410
H         -1.31850       -2.54160        0.08290
H         -3.72580       -1.96080        0.90200
H         -2.06270       -1.32160       -1.72710
H         -4.33170       -0.55550       -1.39670
H         -2.81600        0.93170        0.16760
H         -2.62620        2.62690       -1.57010
