61
omegapdb_1v2k_10.xyz
N          8.89120        0.37580       -1.83180
C          7.92100        1.18700       -2.27420
C          6.63600        1.24850       -1.75260
C          6.27860        0.40990       -0.68050
C          7.29150       -0.44840       -0.21400
C          8.54400       -0.42000       -0.81010
N          5.02550        0.42150       -0.13080
C          3.94400        1.14490       -0.76950
C          2.61410        0.52990       -0.36050
C          2.37430        0.65920        1.15780
C          3.71200        0.64300        1.90560
C          4.76410       -0.17580        1.17300
C          1.50240       -0.49970        1.61350
O          1.97890       -1.46790        2.20270
N          0.17720       -0.47400        1.28990
C         -0.54510        0.60320        0.65220
C         -1.14920        0.14080       -0.67270
N         -1.65190       -1.23150       -0.50560
C         -1.93340       -1.61670        0.87410
C         -0.60840       -1.66140        1.62090
S         -2.70590       -1.75230       -1.67380
O         -2.15110       -1.31060       -2.93510
O         -2.99050       -3.14170       -1.38940
C         -4.18390       -0.81740       -1.37590
C         -5.08660       -1.27960       -0.43920
C         -6.22710       -0.50940       -0.12860
C         -6.42500        0.74510       -0.78890
C         -5.48110        1.17360       -1.75170
C         -4.37230        0.41100       -2.04490
C         -7.56470        1.51900       -0.47740
C         -8.46770        1.05970        0.45390
C         -8.28720       -0.17620        1.10910
C         -7.18460       -0.94480        0.81800
Cl        -9.86480        2.00660        0.84050
H          8.18670        1.84130       -3.09640
H          5.94020        1.96250       -2.16650
H          7.10680       -1.15490        0.58100
H          9.31480       -1.08920       -0.44630
H          3.95930        2.21650       -0.52520
H          4.05940        1.05750       -1.85020
H          2.62980       -0.52630       -0.63810
H          1.80950        0.99770       -0.92850
H          1.87650        1.60760        1.36480
H          4.08320        1.66400        2.00430
H          3.57120        0.23410        2.90380
H          4.43940       -1.21690        1.09210
H          5.68970       -0.15860        1.74720
H         -1.33540        0.95650        1.31910
H          0.11420        1.44490        0.46970
H         -0.40140        0.13370       -1.46230
H         -1.94870        0.83550       -0.95410
H         -2.64540       -0.92980        1.34620
H         -2.37280       -2.61050        0.86820
H         -0.77740       -1.72720        2.69840
H         -0.03830       -2.53740        1.31900
H         -4.93680       -2.24430        0.02850
H         -5.64600        2.11200       -2.26630
H         -3.66470        0.71360       -2.80380
H         -7.72690        2.46780       -0.97110
H         -9.02020       -0.50490        1.83170
H         -7.04050       -1.89590        1.31450
