40
omegapdb_2byh_09.xyz
O          6.37850        0.63730        3.01330
C          5.59110        1.32150        2.37630
C          5.81290        2.80350        2.19810
C          4.38200        0.71070        1.75380
C          3.45570        1.45230        1.01710
C          2.33440        0.85590        0.44820
C          2.13120       -0.51800        0.61640
C          3.05900       -1.26770        1.35470
C          4.16810       -0.66240        1.91660
N          1.04050       -1.20910        0.07560
C         -0.01270       -0.71160       -0.65440
O         -0.17250        0.47360       -0.91490
C         -0.93800       -1.77030       -1.10790
C         -0.64330       -3.10720       -1.44070
N         -1.73980       -3.78470       -1.81470
N         -2.72010       -2.88250       -1.70660
C         -2.31630       -1.64350       -1.29830
C         -3.27290       -0.55390       -1.11750
C         -3.07870        0.68390       -1.73770
C         -4.02110        1.68670       -1.59260
Cl        -3.79710        3.22870       -2.35790
C         -5.17990        1.48900       -0.83190
O         -6.12280        2.44660       -0.67400
C         -5.36650        0.26510       -0.20030
C         -4.42410       -0.74540       -0.33510
O         -4.68050       -1.91810        0.32400
H          4.97640        3.36790        2.60890
H          6.72840        3.08240        2.70930
H          5.89170        3.05440        1.14090
H          3.59630        2.51480        0.87740
H          1.62040        1.43490       -0.11190
H          2.90150       -2.33200        1.48340
H          4.88650       -1.23390        2.48710
H          0.98880       -2.18930        0.30360
H          0.31370       -3.60220       -1.46530
H         -3.65930       -3.14180       -1.97000
H         -2.18430        0.85740       -2.31550
H         -5.82370        3.22570       -1.16480
H         -6.24320        0.10690        0.41060
H         -3.86000       -2.42550        0.36230
