61
omegapdb_1v2k_16.xyz
N          8.49690       -2.01920       -1.40870
C          7.40940       -1.91620       -2.18790
C          6.29770       -1.13930       -1.90050
C          6.26060       -0.38220       -0.71560
C          7.39780       -0.48460        0.10380
C          8.45580       -1.29980       -0.28150
N          5.16830        0.37320       -0.34500
C          5.24050        1.15150        0.88500
C          3.90990        1.85940        1.13880
C          2.76880        0.95010        0.70620
C          2.81430        0.78850       -0.82890
C          4.25500        0.93330       -1.32600
C          1.43090        1.52210        1.12810
O          1.30780        2.71020        1.41940
N          0.35840        0.67460        1.12220
C         -0.95940        1.24020        1.39060
C         -1.99740        0.53360        0.54420
N         -2.06580       -0.88820        0.93970
C         -0.78790       -1.42510        1.44660
C          0.40050       -0.74490        0.78940
S         -2.78270       -1.85490       -0.22360
O         -2.74700       -3.21060        0.28880
O         -2.25680       -1.57140       -1.55070
C         -4.43020       -1.22350       -0.13800
C         -4.95240       -0.56980       -1.23080
C         -6.27210       -0.07030       -1.17380
C         -7.03520       -0.25090        0.02270
C         -6.45220       -0.93240        1.11980
C         -5.16740       -1.41680        1.04900
C         -8.35320        0.25080        0.08370
C         -8.88570        0.90490       -1.00440
C         -8.14510        1.08910       -2.18950
C         -6.85890        0.60710       -2.26770
Cl       -10.50230        1.52160       -0.93240
H          7.42340       -2.49700       -3.10250
H          5.46870       -1.15470       -2.59160
H          7.47740        0.06390        1.02910
H          9.32750       -1.36800        0.35880
H          5.44810        0.46490        1.70850
H          6.06030        1.88130        0.84800
H          3.82790        2.11340        2.19380
H          3.84490        2.79910        0.59220
H          2.92600       -0.02880        1.16230
H          2.19470        1.55500       -1.30000
H          2.41830       -0.18390       -1.11970
H          4.49480        1.98990       -1.49220
H          4.38040        0.43270       -2.27950
H         -1.21200        1.16250        2.45100
H         -0.92090        2.29720        1.13950
H         -2.97670        0.98690        0.69620
H         -1.72880        0.63350       -0.51150
H         -0.75420       -1.26630        2.52470
H         -0.76860       -2.49750        1.26780
H          0.35640       -0.90800       -0.29070
H          1.31930       -1.19080        1.16490
H         -4.35120       -0.44960       -2.12280
H         -7.03660       -1.07090        2.02070
H         -4.71770       -1.94440        1.87820
H         -8.94180        0.12030        0.98190
H         -8.59800        1.60650       -3.02280
H         -6.28270        0.74230       -3.17410
