66
omegapdb_1z1r_12.xyz
C          0.76590       -0.70040       -0.51030
C          0.43680       -1.50300       -1.78480
C         -0.80590       -2.32080       -1.58790
C         -0.93660       -3.18280       -0.49300
C         -2.15420       -3.78260       -0.18880
C         -3.26760       -3.53060       -0.99300
C         -3.12810       -2.76150       -2.14600
C         -1.90930       -2.14830       -2.42580
O         -4.50930       -4.02130       -0.67270
C         -5.00220       -3.55390        0.59330
C         -5.54020       -2.13160        0.52790
C         -4.50560       -1.01230        0.43500
C         -3.71620       -0.83900        1.71170
O         -3.91200       -1.50220        2.72010
N         -2.75320        0.14720        1.70330
C         -2.43020        1.05280        0.62330
C         -1.37050        0.54560       -0.35900
O         -1.37130        0.94630       -1.51970
N         -0.42380       -0.23830        0.19400
C         -1.91760        2.36940        1.23860
C         -1.25430        3.28040        0.22200
O         -0.03570        3.34150        0.11410
N         -2.09740        4.03530       -0.52610
C          1.65380        0.50270       -0.80710
O          2.75530        0.03460       -1.57120
C          2.14870        1.16500        0.46560
N          2.78770        2.42930        0.08590
S          3.90610        3.01780        1.16910
O          3.52460        2.72850        2.54070
O          4.18460        4.37540        0.74820
C          5.27980        1.97140        0.76790
C          5.90330        2.13150       -0.46910
C          6.97090        1.30140       -0.79340
C          7.40340        0.32880        0.10990
C          6.77400        0.18780        1.34460
C          5.70170        1.01170        1.68270
H          1.29200       -1.35230        0.19040
H          0.28980       -0.81240       -2.61310
H          1.30370       -2.11980       -2.02060
H         -0.08290       -3.37180        0.14810
H         -2.25040       -4.42740        0.67400
H         -3.99450       -2.60270       -2.77400
H         -1.82500       -1.48650       -3.27820
H         -4.23510       -3.64120        1.36180
H         -5.81550       -4.23310        0.84050
H         -6.20950       -2.06620       -0.33100
H         -6.13980       -1.96980        1.42490
H         -5.02400       -0.06870        0.24010
H         -3.81880       -1.15540       -0.40010
H         -2.34220        0.31350        2.61130
H         -3.31510        1.25050        0.01990
H         -0.63870       -0.62680        1.09770
H         -2.74630        2.87370        1.73680
H         -1.15430        2.13610        1.98050
H         -1.69950        4.49450       -1.32820
H         -3.07440        3.80890       -0.56330
H          1.05920        1.22040       -1.37950
H          3.35620        0.78730       -1.64940
H          2.90160        0.51520        0.91590
H          1.34370        1.33010        1.17920
H          2.08720        3.15710       -0.06530
H          5.56010        2.90040       -1.14750
H          7.46780        1.41320       -1.74720
H          8.23340       -0.31410       -0.14850
H          7.11570       -0.56240        2.04410
H          5.19930        0.93310        2.63620
