61
omegapdb_1v2k_03.xyz
N          8.19960       -1.26390       -2.99520
C          7.58570       -0.07660       -3.09010
C          6.52680        0.33740       -2.29380
C          6.02280       -0.52420       -1.30170
C          6.66150       -1.77410       -1.19800
C          7.71630       -2.07860       -2.04640
N          4.97650       -0.17480       -0.49270
C          4.67850       -0.92000        0.72410
C          4.11590        0.02590        1.77420
C          2.80170        0.67810        1.32540
C          2.78040        0.81350       -0.21030
C          4.18090        1.00340       -0.77420
C          1.61920       -0.17210        1.76140
O          1.75920       -1.37640        1.97020
N          0.40490        0.44310        1.88820
C         -0.76600       -0.36160        2.20900
C         -1.68800       -0.42080        0.99800
N         -2.01600        0.91320        0.47530
C         -0.83300        1.75130        0.25220
C          0.07490        1.79600        1.47850
S         -3.30460        1.66630        1.21970
O         -3.27180        1.50010        2.66550
O         -3.37520        2.99650        0.64710
C         -4.63870        0.67150        0.61110
C         -4.89810        0.67030       -0.74280
C         -5.97210       -0.09330       -1.24220
C         -6.77210       -0.85430       -0.33030
C         -6.46940       -0.81720        1.05090
C         -5.41700       -0.06540        1.52480
C         -7.84720       -1.62250       -0.82950
C         -8.11190       -1.62970       -2.17960
C         -7.33280       -0.88370       -3.08870
C         -6.28160       -0.12990       -2.62280
Cl        -9.42900       -2.57030       -2.79520
H          7.96910        0.59740       -3.84730
H          6.12730        1.33030       -2.43470
H          6.32830       -2.51760       -0.48990
H          8.19700       -3.04610       -1.96140
H          3.97760       -1.73980        0.54490
H          5.60830       -1.34930        1.09640
H          3.96010       -0.52160        2.70130
H          4.85660        0.80480        1.96140
H          2.73940        1.66940        1.77510
H          2.36260       -0.09560       -0.64910
H          2.14870        1.64560       -0.52310
H          4.63360        1.91840       -0.36770
H          4.11600        1.12710       -1.85550
H         -1.28900        0.09590        3.04890
H         -0.42060       -1.35520        2.47990
H         -1.19610       -0.96580        0.18940
H         -2.61530       -0.94140        1.23900
H         -0.29130        1.30770       -0.58610
H         -1.16740        2.74740       -0.02850
H         -0.44670        2.29520        2.29940
H          0.97510        2.36040        1.25660
H         -4.28370        1.25400       -1.41660
H         -7.07940       -1.39050        1.73750
H         -5.17880       -0.01900        2.57780
H         -8.45960       -2.20170       -0.15160
H         -7.57290       -0.91410       -4.14170
H         -5.67950        0.44650       -3.31350
