39
omegacsd_FIBREN_00.xyz
N         -2.78550       -2.20250       -0.44840
C         -1.65030       -2.12880       -1.16140
N         -0.82090       -1.06950       -1.26370
C         -1.11340        0.06120       -0.61060
C         -2.27940        0.09630        0.16730
C         -3.02930       -1.06420        0.17930
O         -4.10520       -0.84150        0.99690
C         -3.92830        0.44800        1.42810
N         -2.86590        1.05710        0.97430
C         -4.95610        0.98390        2.34620
N         -0.28810        1.13310       -0.73400
C          1.05280        0.93520       -1.24430
C          1.72190        2.30110       -1.44780
C          1.91920        3.01060       -0.13670
O          1.03300        3.25270        0.65790
O          3.20170        3.35670        0.07740
C          1.91010        0.04840       -0.36480
C          1.71120       -0.01990        1.01550
C          2.54510       -0.80650        1.80810
C          3.58500       -1.53080        1.22910
C          3.78560       -1.47020       -0.14920
C          2.95020       -0.68480       -0.93870
C         -1.24630       -3.34670       -1.93200
H         -4.69110        2.00210        2.61100
H         -5.01620        0.37630        3.24740
H         -5.93460        0.97450        1.86930
H         -0.41260        1.88400       -0.06620
H          0.96860        0.45560       -2.21970
H          1.07920        2.92290       -2.07270
H          2.68070        2.16700       -1.94060
H          3.21490        3.79120        0.94490
H          0.89870        0.53220        1.47000
H          2.37830       -0.85750        2.87550
H          4.22750       -2.14510        1.84460
H          4.58270       -2.03980       -0.60740
H          3.09490       -0.65180       -2.01230
H         -1.90530       -4.17540       -1.69320
H         -0.21650       -3.60970       -1.69790
H         -1.29610       -3.14520       -3.00170
