66
omegapdb_1z1r_20.xyz
C          0.74360       -1.36080        2.01130
C          0.70260       -2.87660        1.72280
C         -0.58090       -3.20940        1.01490
C         -0.56790       -3.62060       -0.32020
C         -1.74250       -3.66950       -1.06930
C         -2.95030       -3.29180       -0.48640
C         -2.99220       -2.96460        0.87070
C         -1.81520       -2.92910        1.61170
O         -4.07720       -3.21670       -1.27270
C         -4.52700       -1.85590       -1.41320
C         -3.49690       -1.03390       -2.17540
C         -3.72510        0.48280       -2.12170
C         -3.92150        0.99000       -0.70820
O         -5.04180        1.14800       -0.24270
N         -2.80580        1.28080        0.04500
C         -1.45650        0.82840       -0.19600
C         -0.97910        0.11370        1.07300
O         -1.55870        0.27890        2.13960
N          0.15760       -0.60240        0.91990
C         -0.47950        1.98620       -0.50010
C         -0.21280        2.80340        0.74480
O          0.75190        2.58500        1.47390
N         -1.11770        3.77720        1.00340
C          2.13300       -0.81310        2.34040
O          2.05040        0.48220        2.90350
C          3.05060       -0.79360        1.12220
N          4.29760       -0.14350        1.51350
S          5.22040        0.44310        0.27400
O          6.28780        1.20400        0.88330
O          5.46740       -0.66570       -0.62430
C          4.15120        1.58140       -0.58620
C          3.83690        2.79800        0.01810
C          2.98970        3.68170       -0.64280
C          2.46960        3.35180       -1.89510
C          2.78960        2.13050       -2.48750
C          3.62790        1.23080       -1.82970
H          0.10900       -1.14320        2.86950
H          1.54680       -3.17260        1.09750
H          0.80170       -3.40570        2.67210
H          0.37570       -3.86830       -0.79230
H         -1.73250       -3.95240       -2.11320
H         -3.93770       -2.71280        1.33190
H         -1.85580       -2.62280        2.64960
H         -4.71990       -1.42550       -0.42950
H         -5.47270       -1.91280       -1.94750
H         -2.52020       -1.27710       -1.75700
H         -3.47510       -1.35840       -3.21630
H         -2.89210        0.99010       -2.61140
H         -4.63690        0.74350       -2.65540
H         -3.01300        1.36180        1.03730
H         -1.43270        0.13950       -1.03740
H          0.45410       -0.80370       -0.02230
H          0.47840        1.59160       -0.83380
H         -0.90500        2.59860       -1.29540
H         -1.99050        3.78950        0.50530
H         -1.07360        4.22070        1.90600
H          2.57920       -1.44310        3.11270
H          1.56410        1.07080        2.29610
H          3.27250       -1.79620        0.76170
H          2.55410       -0.23170        0.32170
H          4.11430        0.59340        2.19260
H          4.26250        3.05250        0.97910
H          2.73820        4.62710       -0.18270
H          1.82480        4.05020       -2.41180
H          2.39490        1.88070       -3.46340
H          3.90840        0.28530       -2.27220
