57
omegacsd_SPIRIL_20.xyz
C         -2.22470       -0.36870       -1.04110
C         -2.76490       -0.94880        0.29070
C         -2.32030       -2.40670        0.48040
O         -1.32640       -2.82240        1.04400
N         -3.28450       -3.16200       -0.12040
C         -4.42930       -2.38470       -0.52330
N         -4.24040       -1.16240        0.25070
C         -5.07570       -0.06750       -0.06890
C         -5.31150        0.90050        0.91880
C         -6.12540        1.99790        0.66250
C         -6.75130        2.13800       -0.57590
C         -6.55520        1.16490       -1.55050
C         -5.71930        0.07560       -1.30590
C         -2.31780       -0.06920        1.44230
C         -0.78880        0.04720        1.51550
N         -0.17330       -0.04820        0.19250
C          1.16600        0.50940        0.18770
C          2.11730       -0.26960        1.09810
C          3.52460        0.21560        0.93300
C          4.40850       -0.23510        0.02020
C          5.75550        0.36350       -0.07460
C          5.96690        1.72710        0.17680
C          7.23710        2.28950        0.11070
C          8.30970        1.47680       -0.22300
C          8.14400        0.12940       -0.49980
C          6.86520       -0.41600       -0.43070
F          9.54120        2.01450       -0.29480
C          4.09790       -1.36600       -0.92140
C         -1.03150        0.55470       -0.80940
H         -1.92470       -1.18050       -1.70540
H         -3.02900        0.18730       -1.53040
H         -3.27950       -4.16520       -0.05560
H         -4.41560       -2.22530       -1.60890
H         -5.37180       -2.85920       -0.24870
H         -4.87840        0.76020        1.89810
H         -6.29130        2.73060        1.44060
H         -7.39550        2.98380       -0.77040
H         -7.04490        1.25200       -2.51110
H         -5.57760       -0.65750       -2.08650
H         -2.75000        0.92030        1.29270
H         -2.70630       -0.46140        2.38210
H         -0.54110        1.01570        1.98310
H         -0.39000       -0.74670        2.14070
H          1.54850        0.45950       -0.83390
H          1.16720        1.57440        0.48480
H          1.81540       -0.14850        2.13800
H          2.01860       -1.32860        0.86110
H          3.84780        1.01110        1.59550
H          5.11960        2.36070        0.40130
H          7.40040        3.34140        0.29530
H          9.00210       -0.47190       -0.76310
H          6.73740       -1.46870       -0.64050
H          3.03650       -1.59820       -0.93820
H          4.41260       -1.11600       -1.93480
H          4.62880       -2.27540       -0.63380
H         -0.46540        0.66420       -1.73470
H         -1.36770        1.56490       -0.51950
