34
omegapdb_2f7p_04.xyz
C         -1.21900       -0.53130       -0.40960
N          0.11050        0.03860       -0.26150
C          1.17930       -0.96510       -0.34500
C          2.51050       -0.31180       -0.12550
C          2.90260        0.06020        1.16350
C          4.11480        0.71040        1.37240
C          4.94680        0.99940        0.29080
C          4.56330        0.63390       -0.99720
C          3.34860       -0.01860       -1.20210
C         -1.72650       -1.03930        0.97370
O         -1.07070       -0.31800        2.00190
C         -3.25200       -0.72190        0.99280
O         -3.53780        0.30920        1.91960
C         -3.56540       -0.18850       -0.41580
O         -4.69200        0.64930       -0.44430
C         -2.26070        0.50080       -0.80100
S         -2.11550        0.95610       -2.54690
H         -1.24160       -1.35580       -1.13400
H          0.26400        0.76410       -0.95510
H          1.16710       -1.48900       -1.30820
H          0.98890       -1.70490        0.43530
H          2.25540       -0.16800        2.00190
H          4.41190        0.98890        2.37420
H          5.88980        1.50310        0.45250
H          5.20690        0.85350       -1.83800
H          3.05060       -0.30800       -2.20260
H         -1.54320       -2.10550        1.10600
H         -0.37970        0.17920        1.50420
H         -3.85230       -1.59790        1.23720
H         -2.68130        0.48450        2.34890
H         -3.74620       -1.01190       -1.11020
H         -4.67630        1.09660        0.41520
H         -2.13580        1.38860       -0.17650
H         -3.21460        1.71950       -2.56080
