50
omegapdb_1xom_02.xyz
O          5.70120        2.98400       -0.00460
C          5.67110        1.68330       -0.39050
O          6.67340        1.05170       -0.63270
C          4.26080        1.16030       -0.43540
C          4.18620       -0.16300       -1.18450
C          2.75640       -0.68870       -1.20840
C          2.17110       -0.85430        0.21090
C          2.29580        0.48150        0.97580
C          3.72650        1.00490        0.99500
C          2.97840       -1.84980        0.91790
N          3.65170       -2.62740        1.48190
C          0.72360       -1.30760        0.15260
C          0.28860       -2.50860        0.70660
C         -1.05190       -2.89230        0.62670
C         -1.98670       -2.07730       -0.01000
O         -3.30380       -2.37430       -0.16150
C         -3.72110       -3.63610        0.33680
C         -1.55820       -0.85100       -0.55780
C         -0.22160       -0.48820       -0.47650
O         -2.43140       -0.03470       -1.22490
C         -3.37340        0.61600       -0.36100
C         -4.34740        1.43300       -1.18650
C         -5.00390        2.30420       -0.11870
C         -3.83920        2.70000        0.81680
C         -2.73430        1.64360        0.57740
H          6.64060        3.22040        0.03020
H          3.64960        1.91310       -0.94220
H          4.84780       -0.88300       -0.70020
H          4.55300       -0.03840       -2.20340
H          2.11120        0.00750       -1.74890
H          2.70260       -1.64730       -1.72610
H          1.64530        1.20570        0.48050
H          1.91860        0.34540        1.99050
H          3.76420        1.96290        1.51260
H          4.36870        0.30910        1.54160
H          0.99230       -3.16330        1.20260
H         -1.35010       -3.83610        1.05670
H         -4.77780       -3.71130        0.10440
H         -3.57920       -3.70230        1.41650
H         -3.18100       -4.44870       -0.15080
H          0.05380        0.45450       -0.93070
H         -3.91660       -0.14190        0.20800
H         -5.04470        0.81670       -1.74980
H         -3.77480        2.04280       -1.88880
H         -5.73740        1.71090        0.42910
H         -5.52530        3.16620       -0.52910
H         -3.47020        3.69280        0.56580
H         -4.15680        2.73330        1.85670
H         -2.36280        1.19620        1.49710
H         -1.88290        2.08560        0.05790
