25
omegapdb_1m5f_05.xyz
O         -1.69020       -3.63750       -0.93930
C         -0.83040       -2.60630       -0.95990
O          0.30800       -2.71820       -1.34870
C         -1.38670       -1.32420       -0.46610
N         -2.63240       -1.30560       -0.00180
O         -2.87000       -0.01250        0.37280
C         -1.76620        0.73900        0.13140
C         -0.77980       -0.04620       -0.41290
C          0.59310        0.36340       -0.82040
C          1.67290       -0.14110        0.14910
N          1.36960        0.30490        1.51160
C          2.98640        0.48770       -0.31180
O          3.60350        0.09360       -1.26910
O          3.34980        1.56230        0.40970
C         -1.86160        2.17630        0.47780
H         -2.53590       -3.31230       -0.58950
H          0.64130        1.45290       -0.86660
H          0.83160       -0.02840       -1.80730
H          1.75730       -1.22130        0.03770
H          1.84110       -0.28470        2.18780
H          0.37660        0.21290        1.69430
H          2.67500        1.61000        1.12040
H         -2.65670        2.65760       -0.08910
H         -0.92160        2.67210        0.25180
H         -2.07450        2.30560        1.53780
