36
omegapdb_1qxw_09.xyz
C          4.32600        1.40440        1.00040
C          2.90820        1.89270        0.83890
C          3.41640        0.72300        0.02870
N          2.96350       -0.59760        0.37630
C          1.89680       -1.12450       -0.47960
C          0.53140       -0.60150       -0.01210
C         -0.60960       -1.49870       -0.50070
N         -0.38680       -2.82080        0.08860
C         -1.98390       -0.88450       -0.18950
C         -2.55320       -0.01040       -1.30240
C         -3.93000        0.55990       -0.97120
C         -3.90170        1.56320        0.17670
O          0.27570        0.69060       -0.52930
O          0.51310       -0.59260        1.39590
H          5.12350        2.01570        0.60920
H          4.54960        0.86200        1.90610
H          2.75600        2.83410        0.33200
H          2.22050        1.67090        1.64120
H          3.59240        0.91440       -1.02650
H          3.74960       -1.23490        0.36920
H          2.02810       -0.85510       -1.53220
H          1.88200       -2.20700       -0.38130
H         -0.50290       -1.59910       -1.58500
H         -0.47330       -2.72590        1.09500
H         -1.12770       -3.44400       -0.20850
H         -1.91300       -0.32940        0.74620
H         -2.67970       -1.71070       -0.01540
H         -1.86130        0.80380       -1.51380
H         -2.62390       -0.61320       -2.21240
H         -4.33570        1.04680       -1.86000
H         -4.61350       -0.25810       -0.72830
H         -4.88380        2.00510        0.34000
H         -3.20050        2.36960       -0.03900
H         -3.59030        1.09720        1.10970
H          0.98010        1.26070       -0.19780
H          1.45790       -0.60600        1.63830
