45
omegacsd_SEYMIS_11.xyz
O         -4.90990       -1.72650        0.98410
N         -5.26370       -0.94180       -0.09140
C         -4.12760       -0.54220       -0.65390
C         -3.00880       -1.05890        0.06260
C         -1.55300       -0.89100       -0.18430
O         -0.98790       -1.27200       -1.20040
N         -0.91280       -0.29220        0.86490
C          0.45740       -0.02660        0.93930
C          1.05330        0.62510        2.01900
N          2.39290        0.71740        1.77920
C          3.31250        1.35310        2.70960
C          2.66580        0.13430        0.56480
C          1.46930       -0.33840        0.02010
C          3.97070        0.01520       -0.07770
O          4.14100       -0.50310       -1.16160
O          4.97300        0.54900        0.66660
C          6.28440        0.43310        0.07450
C          6.88030       -0.93140        0.33740
C         -3.56490       -1.79010        1.07670
C         -3.00380       -2.62120        2.16900
C         -4.18020        0.35280       -1.81350
C         -5.23770        1.26390       -1.92820
C         -5.31240        2.11090       -3.02840
C         -4.33270        2.06280       -4.01950
C         -3.28000        1.15710       -3.90550
C         -3.19900        0.30090       -2.81040
H         -1.49790        0.06020        1.60460
H          0.62510        1.02600        2.92230
H          2.72900        1.70350        3.55590
H          4.06150        0.64490        3.04920
H          3.81220        2.19250        2.23700
H          1.37020       -0.83720       -0.92470
H          6.20610        0.63040       -0.99170
H          6.86410        1.21990        0.54960
H          6.92490       -1.12950        1.40630
H          7.89270       -0.97410       -0.06240
H          6.28690       -1.70320       -0.14490
H         -1.91920       -2.63630        2.09810
H         -3.37250       -3.64300        2.09630
H         -3.28820       -2.23010        3.14520
H         -5.98880        1.29840       -1.15130
H         -6.13130        2.81270       -3.10940
H         -4.38970        2.72550       -4.87210
H         -2.52000        1.11060       -4.67350
H         -2.39110       -0.41180       -2.72830
