45
omegacsd_FABSOQ10_11.xyz
S         -0.34840       -2.89160       -0.56650
C         -1.43810       -1.56100       -0.67550
C         -0.74770       -0.36360       -0.61880
C          0.64360       -0.53570       -0.48210
C          1.02730       -1.86630       -0.43620
C          2.41420       -2.43800       -0.38260
O          2.83360       -2.87410       -1.67460
C          3.36710       -1.44450        0.24450
C          4.47030       -0.95610       -0.44460
C          5.33710       -0.02910        0.14180
C          5.09940        0.41090        1.44380
O          5.87430        1.30780        2.11370
C          6.99690        1.81250        1.41180
C          3.99720       -0.08610        2.14940
C          3.14330       -0.99960        1.55360
C         -2.90570       -1.78850       -0.89950
O         -3.20720       -1.90750       -2.29090
C         -3.69890       -0.64240       -0.33430
C         -3.92530       -0.57200        1.04400
C         -4.60020        0.50370        1.59790
C         -5.06600        1.53760        0.77780
O         -5.71850        2.54910        1.41520
C         -6.20180        3.59780        0.59440
C         -4.84970        1.47510       -0.59950
C         -4.16650        0.38540       -1.14550
H         -1.25210        0.59110       -0.65380
H          1.35700        0.27090       -0.39200
H          2.40890       -3.34770        0.22220
H          2.56470       -2.18460       -2.29270
H          4.67280       -1.31680       -1.44270
H          6.18440        0.32800       -0.42270
H          6.69310        2.34450        0.50870
H          7.68910        1.01260        1.14390
H          7.48750        2.50260        2.08950
H          3.83200        0.26120        3.15980
H          2.28840       -1.36840        2.10740
H         -3.20090       -2.70840       -0.38210
H         -2.49400       -2.42030       -2.68630
H         -3.56660       -1.36580        1.68830
H         -4.78380        0.56570        2.66140
H         -6.68610        4.30140        1.26280
H         -6.92710        3.22970       -0.13300
H         -5.38650        4.09830        0.06940
H         -5.20540        2.25410       -1.25600
H         -4.00570        0.32750       -2.21200
