50
omegapdb_1xom_05.xyz
O          6.46450        1.07070       -0.73060
C          5.63030        1.93570       -0.10300
O          5.99210        3.02200        0.28890
C          4.24680        1.36570        0.04490
C          3.64160        0.98130       -1.30710
C          2.22540        0.44960       -1.12240
C          2.17880       -0.76180       -0.16590
C          2.84400       -0.38200        1.17520
C          4.25710        0.15530        0.98430
C          2.96790       -1.83770       -0.76820
N          3.62770       -2.68140       -1.24640
C          0.75060       -1.22710        0.05290
C          0.32200       -2.51410       -0.26280
C         -0.99690       -2.91050       -0.03250
C         -1.92110       -2.01980        0.51430
O         -3.22160       -2.30510        0.76980
C         -3.64330       -3.62260        0.45510
C         -1.49510       -0.71670        0.83510
C         -0.17890       -0.33950        0.60870
O         -2.37850        0.15870        1.41080
C         -2.89090        1.12190        0.48310
C         -3.81000        0.55930       -0.59340
C         -4.48500        1.83060       -1.10180
C         -4.78220        2.63140        0.18430
C         -3.76810        2.11890        1.23290
H          7.32360        1.51810       -0.76490
H          3.64830        2.15980        0.49570
H          4.26830        0.22390       -1.78050
H          3.62260        1.84820       -1.96960
H          1.58990        1.22930       -0.69710
H          1.78990        0.16120       -2.08020
H          2.84440       -1.25490        1.82940
H          2.21890        0.37850        1.64820
H          4.67400        0.43800        1.95230
H          4.90040       -0.62010        0.56440
H          1.01540       -3.22600       -0.68990
H         -1.28980       -3.91710       -0.28820
H         -3.53260       -3.82990       -0.61050
H         -4.69210       -3.67030        0.72700
H         -3.08430       -4.36360        1.02850
H          0.10020        0.66680        0.89500
H         -2.04570        1.63070        0.00320
H         -4.53240       -0.10350       -0.11450
H         -3.28130       -0.00100       -1.36340
H         -5.37710        1.63550       -1.69320
H         -3.78940        2.38400       -1.73510
H         -5.79970        2.44000        0.52050
H         -4.69760        3.70330        0.01860
H         -3.18350        2.91360        1.69060
H         -4.26760        1.57310        2.03260
