25
omegapdb_1m5f_01.xyz
O          0.06380       -2.60140       -1.04150
C         -1.24300       -2.31040       -1.31210
O         -1.95220       -3.04160       -1.95440
C         -1.64070       -1.01510       -0.72080
N         -2.83710       -0.53930       -1.08060
O         -2.97510        0.63230       -0.38640
C         -1.88580        0.85220        0.38160
C         -0.98600       -0.17020        0.21100
C          0.35090       -0.26560        0.86500
C          1.40890        0.54420        0.10880
N          1.69000        0.06800       -1.24660
C          2.70360        0.57960        0.93160
O          2.71290        0.80560        2.11860
O          3.80450        0.35970        0.20820
C         -1.88140        2.07970        1.21120
H          0.21300       -3.47310       -1.44140
H          0.30400        0.11590        1.88370
H          0.67290       -1.30360        0.92510
H          1.07550        1.58250        0.04950
H          1.19230        0.60930       -1.93920
H          1.39460       -0.89570       -1.35120
H          3.44960        0.20410       -0.69820
H         -1.86180        2.97290        0.58820
H         -1.00300        2.08620        1.85220
H         -2.77040        2.12400        1.83770
