39
omegacsd_GALSEM_00.xyz
S          1.43760        1.34820        0.82720
O          0.84330        2.42370        0.05120
O          0.93440        1.02580        2.14010
N          3.04180        1.73030        0.94280
C          4.05730        1.25060        1.80120
O          5.18910        1.63680        1.60050
C          3.66150        0.31160        2.90690
C          4.88010       -0.21230        3.64660
C          1.37840       -0.11070       -0.17170
C          0.13600       -0.49580       -0.71690
N         -0.97470        0.29960       -0.57630
C         -2.28690       -0.06960       -0.88900
C         -3.11900        0.85910       -1.51840
C         -4.44600        0.53430       -1.77800
C         -4.95540       -0.71890       -1.44580
C         -4.12230       -1.64010       -0.81670
C         -2.80020       -1.32040       -0.52680
C         -5.31520        1.52120       -2.49880
F         -5.25120        1.34470       -3.83010
F         -6.60300        1.39920       -2.14900
F         -4.94730        2.78620       -2.25290
C          0.13740       -1.70600       -1.42310
C          1.31360       -2.42950       -1.54940
N          2.49980       -2.05140       -1.05170
C          2.50870       -0.89670       -0.38000
H          3.37430        2.34040        0.20490
H          3.06580       -0.50120        2.49040
H          2.98450        0.84920        3.57100
H          5.45420        0.60530        4.07410
H          5.53770       -0.76110        2.97680
H          4.56930       -0.87740        4.44870
H         -0.79210        1.28530       -0.43380
H         -2.73060        1.83020       -1.79330
H         -5.98620       -0.95960       -1.65790
H         -4.51010       -2.60710       -0.52880
H         -2.17420       -2.02180        0.00670
H         -0.76500       -2.06410       -1.89540
H          1.30630       -3.36130       -2.10090
H          3.46800       -0.57660        0.00470
