39
omegacsd_GALSEM_09.xyz
S          1.34290        2.23120        1.09600
O          2.32420        3.28010        1.03870
O          0.00060        2.48790        1.60280
N          1.87030        0.99760        2.10860
C          3.12750        0.39850        2.02500
O          3.88260        0.62720        1.10390
C          3.42220       -0.54800        3.16590
C          4.72350       -1.30030        2.95130
C          1.24660        1.42730       -0.46040
C          0.18180        0.56230       -0.78710
N         -0.86410        0.33670        0.07080
C         -2.09260       -0.25060       -0.29210
C         -2.69900       -0.00460       -1.52550
C         -3.92160       -0.60010       -1.82150
C         -4.57300       -1.40740       -0.89220
C         -3.97790       -1.62570        0.34730
C         -2.74130       -1.06230        0.64340
C         -4.57010       -0.29290       -3.13870
F         -5.24730        0.86610       -3.09210
F         -5.44000       -1.24430       -3.50280
F         -3.66360       -0.17740       -4.12120
C          0.31280       -0.09450       -2.02060
C          1.40340        0.16890       -2.83220
N          2.39220        1.02810       -2.53710
C          2.30240        1.62710       -1.35050
H          1.27330        0.84440        2.90860
H          2.57910       -1.23340        3.27190
H          3.45780        0.04390        4.08340
H          5.55230       -0.60600        2.84450
H          4.92410       -1.95900        3.79300
H          4.67690       -1.89790        2.04450
H         -0.88580        0.94410        0.88250
H         -2.22820        0.65260       -2.24220
H         -5.52140       -1.86050       -1.13820
H         -4.47040       -2.25120        1.07830
H         -2.26110       -1.25170        1.59390
H         -0.42790       -0.81150       -2.34070
H          1.48800       -0.34230       -3.78320
H          3.10050        2.29810       -1.06670
