44
omegacsd_CUHNEY10_06.xyz
Cl         0.23250       -4.98670       -0.42080
C         -0.57510       -3.46150       -0.47350
C         -0.44890       -2.57380        0.59070
N         -1.03410       -1.37390        0.59460
C         -1.77620       -1.02530       -0.46190
N         -2.32190        0.26080       -0.38080
C         -3.27660        0.81060       -1.23420
O         -3.84350        0.25860       -2.15520
C         -3.44490        2.21130       -0.74920
N         -4.27320        3.12940       -1.24380
C         -4.18510        4.30350       -0.59890
C         -3.31390        4.53060        0.47430
N         -2.48620        3.59040        0.96100
C         -2.58500        2.43140        0.31590
C         -1.79080        1.19630        0.60900
O         -0.41890        1.39970        0.34360
C          0.42580        1.03550        1.37860
O          0.09500        1.03540        2.54450
N          1.64610        0.74110        0.87080
C          1.83310        0.46730       -0.55550
C          3.30070        0.12960       -0.76980
N          3.75390       -1.04260       -0.02120
C          3.11640       -1.13390        1.29630
C          2.66660        0.23060        1.78040
C          3.55190       -2.27940       -0.75570
C         -1.97410       -1.85940       -1.56930
C         -1.35310       -3.10080       -1.56890
H          0.13230       -2.83970        1.46400
H         -4.83110        5.09850       -0.94800
H         -3.28430        5.49960        0.95490
H         -1.90950        0.82990        1.62740
H          1.55460        1.34060       -1.14240
H          1.19490       -0.36480       -0.86930
H          3.48190       -0.04790       -1.82910
H          3.90210        0.99550       -0.48690
H          2.22670       -1.77900        1.25640
H          3.81310       -1.58000        2.00840
H          2.21770        0.16380        2.76720
H          3.51300        0.91760        1.83260
H          4.09580       -2.24500       -1.69810
H          2.49160       -2.49000       -0.96630
H          3.94230       -3.11130       -0.17050
H         -2.59290       -1.53600       -2.38980
H         -1.46900       -3.77670       -2.40390
