57
omegacsd_SPIRIL_16.xyz
C         -1.88460       -0.60460       -1.50340
C         -2.60250       -1.10030       -0.22980
C         -2.76470       -2.62050       -0.29640
O         -1.91810       -3.42170       -0.65460
N         -4.01730       -2.90580        0.13400
C         -4.79680       -1.74640        0.46660
N         -4.00570       -0.66910       -0.10690
C         -4.38250        0.62920        0.23230
C         -5.61660        0.87300        0.86130
C         -6.02840        2.17120        1.15240
C         -5.22430        3.26150        0.83830
C         -3.99930        3.03130        0.21620
C         -3.58260        1.74010       -0.08590
C         -1.77190       -0.76850        1.02450
C         -0.31840       -1.20850        0.87430
N          0.32550       -0.64600       -0.32450
C          1.07040       -1.66000       -1.06310
C          2.29550       -2.12540       -0.26890
C          3.14350       -0.96230        0.13510
C          4.24490       -0.50440       -0.49200
C          4.90060        0.72660       -0.00440
C          6.29210        0.88460       -0.06570
C          6.91300        2.03560        0.41150
C          6.12670        3.04560        0.94210
C          4.74550        2.94110        1.00000
C          4.14150        1.78350        0.51990
F          6.71870        4.16510        1.39920
C          4.86550       -1.17410       -1.68620
C         -0.58390        0.12450       -1.16210
H         -1.64370       -1.47280       -2.11790
H         -2.55830        0.02820       -2.08150
H         -4.34520       -3.85270        0.22140
H         -5.78730       -1.78420        0.00860
H         -4.91850       -1.63780        1.55430
H         -6.27190        0.05570        1.12260
H         -6.98500        2.32130        1.63470
H         -5.54480        4.26710        1.06940
H         -3.35590        3.86170       -0.04260
H         -2.63820        1.60200       -0.58390
H         -2.21070       -1.26330        1.89490
H         -1.83150        0.30510        1.20840
H         -0.29570       -2.30050        0.82400
H          0.23490       -0.91320        1.77050
H          1.42160       -1.19890       -1.98900
H          0.44790       -2.52870       -1.32010
H          1.96510       -2.66300        0.62190
H          2.84730       -2.84410       -0.87380
H          2.80230       -0.41110        1.00310
H          6.90610        0.09380       -0.47390
H          7.98610        2.15580        0.37690
H          4.16350        3.76060        1.39630
H          3.06250        1.70270        0.52410
H          5.82330       -1.63070       -1.43030
H          4.22790       -1.95480       -2.09140
H          5.05840       -0.44550       -2.47430
H         -0.79410        1.06900       -0.65610
H         -0.05240        0.38360       -2.07820
