40
omegapdb_2byh_06.xyz
O          5.71900        3.20790        1.66880
C          5.51470        2.06430        2.04830
C          6.43380        1.40010        3.04530
C          4.34960        1.28620        1.53970
C          3.49120        1.88640        0.61510
C          2.38820        1.21580        0.10480
C          2.12740       -0.09640        0.52410
C          2.98460       -0.70470        1.44960
C          4.08200       -0.02320        1.95340
N          1.04880       -0.85830        0.06140
C          0.03980       -0.49080       -0.79900
O         -0.06940        0.63510       -1.27050
C         -0.85520       -1.62790       -1.10360
C         -0.42040       -2.95370       -1.29190
N         -1.44150       -3.78830       -1.53900
N         -2.51160       -2.99700       -1.49850
C         -2.25180       -1.68280       -1.24910
C         -3.32040       -0.69060       -1.16280
C         -3.05220        0.66280       -1.40180
C         -4.05330        1.61370       -1.30280
Cl        -3.71200        3.28980       -1.59650
C         -5.36400        1.25970       -0.97700
O         -6.37220        2.15690       -0.87440
C         -5.64370       -0.08400       -0.75580
C         -4.64530       -1.04370       -0.84770
O         -4.93390       -2.37190       -0.63000
H          5.88390        1.11200        3.94070
H          6.87050        0.49650        2.62120
H          7.22210        2.09720        3.30960
H          3.70530        2.89840        0.30140
H          1.72860        1.68880       -0.60220
H          2.78530       -1.71900        1.77400
H          4.72460       -0.51880        2.66700
H          0.96020       -1.78060        0.45760
H          0.58940       -3.32950       -1.30190
H         -3.43490       -3.39300       -1.58020
H         -2.04660        0.96010       -1.66050
H         -5.99560        3.02860       -1.06560
H         -6.66030       -0.36520       -0.51080
H         -5.86570       -2.44090       -0.39440
