25
omegapdb_1m5f_11.xyz
O         -1.25890       -3.53600       -1.19230
C         -0.77710       -2.30010       -1.38780
O          0.09630       -2.03490       -2.18790
C         -1.43370       -1.29110       -0.53590
N         -2.60390       -1.54000        0.04350
O         -2.91810       -0.38440        0.72110
C         -1.94080        0.53390        0.54220
C         -0.96150        0.01330       -0.25940
C          0.30430        0.67060       -0.69320
C          1.42720        0.64920        0.35250
N          2.58980        1.45980       -0.02670
C          1.90430       -0.77350        0.68170
O          1.16460       -1.72230        0.77780
O          3.22320       -0.85450        0.89820
C         -2.11610        1.83770        1.22400
H         -0.75850       -4.10270       -1.79920
H          0.10220        1.71910       -0.92320
H          0.65840        0.19190       -1.60540
H          1.04400        1.04700        1.29540
H          2.44060        2.43570        0.19090
H          2.74380        1.39950       -1.02730
H          3.54880        0.05480        0.71940
H         -1.37980        2.54810        0.85420
H         -1.98920        1.73870        2.30150
H         -3.10980        2.24010        1.03600
