45
omegacsd_FABSOQ10_08.xyz
S         -0.75790        0.87510        0.21560
C         -1.15330        0.23380       -1.33420
C         -0.10040       -0.50700       -1.83820
C          1.01380       -0.54400       -0.97660
C          0.81650        0.17940        0.18820
C          1.71910        0.27430        1.38420
O          1.30110       -0.62580        2.40970
C          3.15990        0.06880        0.97050
C          3.93210       -0.95730        1.50060
C          5.25970       -1.14260        1.10340
C          5.82660       -0.28080        0.16470
O          7.10580       -0.36510       -0.29400
C          7.89490       -1.41320        0.24130
C          5.05880        0.76320       -0.36500
C          3.74280        0.93110        0.03310
C         -2.42980        0.60820       -2.02480
O         -2.28190        1.82190       -2.76020
C         -3.60120        0.64970       -1.06550
C         -4.49560        1.72250       -1.05560
C         -5.57190        1.74030       -0.17820
C         -5.78420        0.67670        0.70190
O         -6.86430        0.78910        1.52310
C         -7.08700       -0.28610        2.41880
C         -4.90610       -0.41070        0.69100
C         -3.82450       -0.41130       -0.18780
H         -0.14590       -0.98480       -2.80650
H          1.93940       -1.06190       -1.18350
H          1.62190        1.26400        1.83590
H          1.07440       -1.45170        1.96660
H          3.50380       -1.60910        2.24820
H          5.82980       -1.94980        1.53660
H          8.00610       -1.31280        1.32220
H          7.46510       -2.38960        0.01170
H          8.86720       -1.32650       -0.23140
H          5.51640        1.42520       -1.08700
H          3.15680        1.73690       -0.39210
H         -2.62010       -0.14730       -2.79070
H         -1.90230        2.46780       -2.15250
H         -4.35060        2.53890       -1.74790
H         -6.26500        2.56980       -0.16050
H         -7.97470       -0.02430        2.98430
H         -7.26150       -1.21990        1.88190
H         -6.24590       -0.41350        3.10220
H         -5.04480       -1.24850        1.35660
H         -3.14310       -1.25330       -0.18210
