25
omegapdb_1m5f_03.xyz
O         -1.06510       -3.69970       -0.72790
C         -0.41430       -2.53380       -0.72180
O          0.76440       -2.46340       -1.01220
C         -1.22090       -1.36290       -0.32820
N         -2.46300       -1.55810        0.11470
O         -2.92790       -0.31670        0.43970
C         -1.96890        0.61460        0.19390
C         -0.85490       -0.00110       -0.31280
C          0.45900        0.56380       -0.71160
C          1.50340        0.32010        0.39560
N          1.35330        1.34150        1.41700
C          2.88770        0.27450       -0.24170
O          3.69830        1.16200       -0.12320
O          3.13360       -0.81590       -0.98870
C         -2.29950        2.02180        0.51210
H         -1.98000       -3.52660       -0.44670
H          0.77350        0.10660       -1.64850
H          0.38690        1.63910       -0.87430
H          1.30810       -0.65630        0.83990
H          1.90900        2.14060        1.12270
H          1.79220        1.02620        2.27400
H          2.35990       -1.40860       -0.97200
H         -1.37620        2.57890        0.64580
H         -2.87110        2.07240        1.43600
H         -2.88740        2.48120       -0.28150
