36
omegapdb_1qxw_14.xyz
C          4.28480        1.42740       -0.45350
C          3.93710        0.21780       -1.29530
C          3.71690        0.20990        0.19780
N          2.39340        0.27460        0.75040
C          1.66320       -0.98350        0.61850
C          0.34260       -0.90510        1.39110
C         -0.78170       -0.13870        0.68560
N         -0.34580        1.25010        0.50030
C         -1.17430       -0.74670       -0.65220
C         -2.37820       -0.07260       -1.31160
C         -3.63500       -0.04660       -0.44980
C         -4.83900        0.48940       -1.21370
O          0.60300       -0.29520        2.63970
O         -0.16750       -2.19860        1.61470
H          3.63480        2.28640       -0.53330
H          5.32630        1.65750       -0.29350
H          3.05440        0.29220       -1.91370
H          4.74570       -0.36570       -1.70860
H          4.39520       -0.39560        0.78440
H          1.84290        0.99950        0.29490
H          2.26100       -1.76790        1.08850
H          1.48380       -1.28710       -0.41640
H         -1.62740       -0.22490        1.37620
H         -0.26180        1.68070        1.41510
H         -1.06680        1.76610        0.01050
H         -0.32390       -0.68710       -1.33430
H         -1.39470       -1.80250       -0.49150
H         -2.60100       -0.60280       -2.24070
H         -2.12560        0.94820       -1.61420
H         -3.46700        0.56730        0.43690
H         -3.84190       -1.05670       -0.08890
H         -5.05620       -0.13410       -2.08070
H         -4.64980        1.50090       -1.57390
H         -5.73080        0.51870       -0.58990
H          1.44990        0.16850        2.49600
H          0.33400       -2.54390        2.36250
