46
omegacsd_CDBMPI10_10.xyz
O          2.92410        1.41580        1.92870
C          2.47610        0.49680        1.24520
N          1.24800       -0.06390        1.49270
C          0.40030       -0.89050        0.62140
C         -0.60830        0.03000       -0.06140
N         -1.37630        0.76670        0.92970
C         -0.58810        1.53040        1.90190
C          0.43820        0.58560        2.52120
C          0.03430        2.76990        1.27320
C         -2.68440        1.14040        0.75070
O         -3.18430        2.09020        1.34860
C         -3.51360        0.29660       -0.16300
C         -3.56550       -1.09440       -0.03350
C         -4.41330       -1.84120       -0.84750
C         -5.20070       -1.20410       -1.80540
C         -5.15530        0.18390       -1.93090
C         -4.32540        0.93400       -1.10280
C          1.05910       -1.80650       -0.39450
C          3.30560       -0.04850        0.13100
C          4.09560       -1.18270        0.31860
C          4.91460       -1.63890       -0.71110
C          4.94750       -0.96280       -1.93000
C          4.17820        0.18640       -2.10910
C          3.36810        0.65050       -1.07600
H         -0.16230       -1.52530        1.31400
H         -1.28610       -0.54700       -0.68390
H         -0.05430        0.71730       -0.71280
H         -1.28820        1.84170        2.67550
H          1.10480        1.13190        3.18190
H         -0.08010       -0.19430        3.08220
H         -0.75350        3.40100        0.86670
H          0.73050        2.51010        0.47720
H          0.59290        3.33150        2.01960
H         -2.96150       -1.58260        0.72120
H         -4.46260       -2.91540       -0.73230
H         -5.85330       -1.78480       -2.44250
H         -5.77340        0.68040       -2.66620
H         -4.30300        2.01320       -1.16700
H          1.79950       -2.45320        0.06730
H          0.27160       -2.43390       -0.81340
H          1.53490       -1.26620       -1.20850
H          4.06500       -1.70410        1.26670
H          5.52600       -2.51870       -0.56330
H          5.57920       -1.32140       -2.73090
H          4.21610        0.72320       -3.04710
H          2.78360        1.55310       -1.20190
