39
omegacsd_FIBREN_17.xyz
N         -2.72460        0.71590       -1.64190
C         -1.53900        0.17720       -1.96790
N         -0.68090       -0.45880       -1.14110
C         -0.98650       -0.58620        0.15220
C         -2.20370       -0.05920        0.60230
C         -2.98560        0.55640       -0.35600
O         -4.10960        1.01640        0.27600
C         -3.92670        0.64750        1.58350
N         -2.81630        0.00920        1.84200
C         -5.00170        1.01640        2.52910
N         -0.13450       -1.23660        1.00090
C          1.30410       -1.31560        0.71790
C          1.57640       -2.40350       -0.32560
C          3.04870       -2.65810       -0.55530
O          3.61350       -2.51900       -1.60880
O          3.74700       -3.08200        0.53590
C          1.88750        0.04280        0.38530
C          2.28810        0.40610       -0.90170
C          2.76800        1.69160       -1.14810
C          2.84630        2.62640       -0.11880
C          2.45050        2.26920        1.16940
C          1.97730        0.98440        1.41540
C         -1.09890        0.29090       -3.39320
H         -5.14040        2.09590        2.54450
H         -4.73040        0.67020        3.52070
H         -5.94400        0.56130        2.22920
H         -0.37740       -1.10080        1.97180
H          1.74330       -1.62630        1.67010
H          1.10500       -3.32440        0.02380
H          1.11970       -2.13040       -1.27060
H          3.14020       -3.19020        1.27670
H          2.23580       -0.30550       -1.71190
H          3.08040        1.96030       -2.14810
H          3.21800        3.62250       -0.31610
H          2.51620        2.98480        1.97760
H          1.67260        0.70860        2.41910
H         -0.97200       -0.69960       -3.82820
H         -1.83250        0.84770       -3.96750
H         -0.13390        0.79400       -3.44270
