24
omegapdb_1gs5_10.xyz
C         -0.30400       -0.29380       -0.27520
C         -0.59480       -1.43310        0.67110
O         -1.48840       -1.44500        1.48460
O          0.27570       -2.45040        0.50000
C          0.89140        0.55630        0.18590
C          2.21490       -0.19040        0.24960
C          2.39740       -0.95590        1.54300
O          1.75990       -0.76280        2.54640
O          3.38780       -1.88370        1.53440
N         -1.49700        0.50830       -0.36240
C         -1.71070        1.33090       -1.42510
O         -0.89370        1.43900       -2.33290
C         -3.01710        2.08550       -1.38570
H         -0.07640       -0.70160       -1.26140
H          0.08530       -3.08660        1.20770
H          0.66640        0.97630        1.16560
H          0.96190        1.36910       -0.53430
H          2.32490       -0.86790       -0.59950
H          3.04110        0.52230        0.19380
H          3.76680       -1.92560        0.64910
H         -2.17940        0.39770        0.37060
H         -3.85670        1.39320       -1.35370
H         -3.06530        2.71470       -0.49850
H         -3.09000        2.70380       -2.27300
