40
omegapdb_2byh_00.xyz
O          6.93530        0.90910        1.37330
C          5.86940        1.41280        1.69460
C          5.81810        2.69230        2.49210
C          4.57900        0.77370        1.30330
C          3.33640        1.31150        1.64510
C          2.14820        0.69430        1.26490
C          2.20200       -0.49160        0.52600
C          3.44660       -1.03690        0.18050
C          4.61990       -0.41240        0.56260
N          1.06490       -1.19560        0.10220
C         -0.25120       -0.89070        0.28310
O         -0.63600        0.14690        0.83210
C         -1.17120       -1.91120       -0.22890
C         -0.94180       -3.29690       -0.35210
N         -1.99570       -3.92940       -0.88610
N         -2.87190       -2.94630       -1.10780
C         -2.45930       -1.70460       -0.73460
C         -3.32880       -0.55740       -0.98720
C         -3.90630       -0.44090       -2.25910
C         -4.85690        0.53270       -2.51770
Cl        -5.56740        0.68250       -4.09550
C         -5.26270        1.41870       -1.51440
O         -6.19220        2.38160       -1.72020
C         -4.67460        1.31860       -0.25920
C         -3.71050        0.35260        0.02020
O         -3.22580        0.29610        1.27910
H          5.28410        3.46560        1.94080
H          6.83320        3.01990        2.69080
H          5.29190        2.53580        3.43320
H          3.27730        2.22750        2.21550
H          1.19530        1.12080        1.52610
H          3.48560       -1.95680       -0.39100
H          5.58330       -0.82570        0.29980
H          1.24310       -2.01640       -0.45530
H         -0.08460       -3.87090       -0.04020
H         -3.77930       -3.16800       -1.48890
H         -3.60080       -1.10710       -3.05500
H         -6.47570        2.31570       -2.64310
H         -4.96840        2.00640        0.52050
H         -2.25250        0.14380        1.21610
