35
omegacsd_DIAVER_06.xyz
N         -2.57810       -0.82520       -1.73350
C         -3.85080       -0.80570       -1.32810
N         -4.29540       -0.61300       -0.07860
C         -3.36490       -0.45080        0.86020
C         -1.98770       -0.46350        0.57240
C         -1.67070       -0.65250       -0.76220
C         -0.96810       -0.29010        1.66900
C          0.44810       -0.33700        1.17380
C          1.04270        0.82200        0.66130
C          2.33560        0.79430        0.13990
C          3.04450       -0.42350        0.11900
C          2.45120       -1.56980        0.63030
C          1.16170       -1.53130        1.15940
O          4.33140       -0.47880       -0.34370
C          4.41530       -0.35230       -1.76420
O          2.99560        1.87720       -0.35310
C          2.29360        3.10870       -0.31170
N         -3.81480       -0.32440        2.15520
N         -4.80960       -1.04740       -2.28370
H         -0.63240       -0.66910       -1.07130
H         -1.13950        0.66760        2.17410
H         -1.12000       -1.06890        2.42200
H          0.47990        1.74460        0.67910
H          3.02610       -2.48560        0.61510
H          0.71010       -2.43290        1.55250
H          5.46910       -0.42040       -2.01560
H          4.01960        0.60590       -2.09570
H          3.87130       -1.16440       -2.24970
H          1.38230        3.06630       -0.91050
H          2.04120        3.38390        0.71350
H          2.96790        3.84860       -0.72920
H         -4.79570       -0.10370        2.21990
H         -3.22610        0.18250        2.79340
H         -4.50450       -0.87690       -3.22630
H         -5.72900       -0.71410       -2.05160
