39
omegacsd_FIBREN_09.xyz
N         -2.55670       -1.82960        0.19350
C         -1.27810       -1.86590        0.59990
N         -0.37460       -0.86500        0.53560
C         -0.73500        0.31150        0.01370
C         -2.05430        0.46570       -0.43490
C         -2.86680       -0.64280       -0.30100
O         -4.09820       -0.30040       -0.79400
C         -3.94350        1.00100       -1.19310
N         -2.75520        1.51270       -1.00930
C         -5.13240        1.65910       -1.77610
N          0.17710        1.30940       -0.09040
C          1.54240        1.19250        0.39380
C          1.58350        1.07460        1.92280
C          0.69130        2.10400        2.55230
O         -0.20410        1.88870        3.33320
O          1.00540        3.35930        2.12990
C          2.28380        0.07520       -0.31680
C          2.08790       -0.09920       -1.68960
C          2.77180       -1.08960       -2.38700
C          3.66910       -1.92210       -1.71990
C          3.87540       -1.75150       -0.35380
C          3.18760       -0.75880        0.34270
C         -0.78670       -3.14210        1.20750
H         -5.47280        1.11920       -2.65790
H         -5.94920        1.67550       -1.05670
H         -4.87040        2.67530       -2.05100
H         -0.16630        2.20830       -0.38520
H          2.01720        2.13720        0.12440
H          2.60280        1.24190        2.27340
H          1.24160        0.09390        2.23820
H          0.38260        3.94470        2.58710
H          1.38130        0.53640       -2.20740
H          2.60190       -1.21390       -3.44790
H          4.19840       -2.69610       -2.25820
H          4.56630       -2.39410        0.17490
H          3.35220       -0.65590        1.40550
H         -1.50600       -3.93750        1.03960
H          0.17800       -3.40980        0.78140
H         -0.64720       -3.01190        2.28080
