36
omegapdb_1qxw_01.xyz
C          5.36270       -0.28230        0.81380
C          4.77480       -0.55970       -0.54840
C          4.26350        0.58370        0.27560
N          2.96090        0.41830        0.85460
C          1.87410        0.79610       -0.04500
C          0.58110        0.25260        0.54650
C         -0.59730        0.32540       -0.42670
N         -0.24630       -0.46930       -1.60180
C         -1.90800       -0.07460        0.25470
C         -3.11940        0.02800       -0.66240
C         -4.42720       -0.28670        0.05280
C         -5.63330       -0.19660       -0.87250
O          0.75340       -1.09400        0.90440
O          0.34290        1.04500        1.70550
H          5.09070       -0.95530        1.61160
H          6.35790        0.13070        0.86440
H          4.11720       -1.41100       -0.63520
H          5.37400       -0.33650       -1.41690
H          4.54180        1.58050       -0.05530
H          2.88370        0.95770        1.71010
H          2.04100        0.32530       -1.00970
H          1.77690        1.87740       -0.18600
H         -0.67660        1.36950       -0.74290
H         -0.98480       -0.41680       -2.29110
H         -0.16930       -1.43980       -1.31780
H         -1.81290       -1.09760        0.62830
H         -2.07590        0.57680        1.11540
H         -3.01040       -0.65760       -1.50630
H         -3.17320        1.03720       -1.08300
H         -4.36520       -1.28840        0.48380
H         -4.55160        0.40270        0.89070
H         -5.53780       -0.89730       -1.70180
H         -6.56040       -0.42330       -0.34860
H         -5.72350        0.80440       -1.29420
H          1.69370       -1.13200        1.16340
H         -0.21700        0.50750        2.27710
