39
omegacsd_GALSEM_13.xyz
S          2.30330       -1.23990        1.00340
O          1.33980       -1.22750        2.09490
O          3.57450       -1.89950        1.19080
N          2.51830        0.35830        0.53490
C          2.97950        1.41640        1.35710
O          3.46480        2.38730        0.81710
C          2.79340        1.26940        2.84210
C          3.30350        2.48860        3.58960
C          1.53610       -1.83470       -0.45950
C          0.20000       -1.50410       -0.77170
N         -0.55800       -0.74480        0.07770
C         -1.83640       -0.24040       -0.18140
C         -2.15690        0.34010       -1.41050
C         -3.43640        0.84590       -1.61880
C         -4.39450        0.82230       -0.60860
C         -4.05860        0.27170        0.62570
C         -2.79440       -0.26560        0.83850
C         -3.74230        1.49230       -2.93710
F         -5.05710        1.52520       -3.18740
F         -3.29870        2.75950       -2.97600
F         -3.15380        0.84170       -3.95380
C         -0.27160       -2.03400       -1.98240
C          0.56380       -2.81600       -2.76470
N          1.83320       -3.13210       -2.46180
C          2.29220       -2.63940       -1.31060
H          2.86640        0.44680       -0.41500
H          1.73670        1.08640        3.03560
H          3.30870        0.36190        3.16230
H          3.15840        2.35790        4.65940
H          4.36200        2.64580        3.39920
H          2.77630        3.38490        3.27340
H         -0.22950       -0.71540        1.03640
H         -1.41250        0.41360       -2.18990
H         -5.38140        1.22110       -0.78720
H         -4.79000        0.24540        1.42090
H         -2.54210       -0.71620        1.78960
H         -1.28890       -1.86260       -2.29940
H          0.18380       -3.22500       -3.69260
H          3.30820       -2.88500       -1.03070
