61
omegapdb_1v2k_09.xyz
N          8.79000        1.35860       -1.09180
C          8.32770        0.13740       -0.78060
C          6.98510       -0.20170       -0.71460
C          6.00570        0.76800       -0.98090
C          6.48130        2.04550       -1.30390
C          7.85360        2.27740       -1.34840
N          4.64700        0.43920       -0.95980
C          4.19480       -0.29460        0.22000
C          2.83030       -0.91960       -0.01460
C          1.81220        0.15540       -0.40060
C          2.33520        0.91010       -1.61310
C          3.71460        1.48930       -1.34130
C          0.46390       -0.47340       -0.70310
O          0.05800       -0.60400       -1.85540
N         -0.26930       -0.94670        0.34990
C          0.03420       -0.77300        1.76030
C         -1.24480       -0.45930        2.51600
N         -2.13430       -1.62640        2.42960
C         -1.96750       -2.44450        1.21820
C         -1.53300       -1.60890        0.03020
S         -3.68930       -1.37780        2.95050
O         -3.58160       -0.54870        4.13220
O         -4.34120       -2.66910        2.95850
C         -4.42740       -0.40890        1.66190
C         -5.06330       -1.05570        0.62130
C         -5.53910       -0.31150       -0.47850
C         -5.34980        1.10740       -0.49730
C         -4.71740        1.73240        0.60310
C         -4.25910        0.99280        1.67100
C         -5.81550        1.85330       -1.60230
C         -6.44230        1.20940       -2.64440
C         -6.63770       -0.18740       -2.63780
C         -6.19350       -0.93070       -1.56960
Cl        -7.01250        2.11960       -4.00230
H          9.07800       -0.61820       -0.58170
H          6.71240       -1.22290       -0.49210
H          5.81100        2.86550       -1.50790
H          8.21450        3.26840       -1.59690
H          4.14160        0.38600        1.08570
H          4.91960       -1.06630        0.46070
H          2.52280       -1.45320        0.88610
H          2.89800       -1.64540       -0.82780
H          1.72120        0.86080        0.43110
H          1.64970        1.71280       -1.88510
H          2.38400        0.22800       -2.46060
H          4.08600        1.96130       -2.24890
H          3.65280        2.26610       -0.56120
H          0.49900       -1.66750        2.18560
H          0.72640        0.05330        1.89140
H         -1.03420       -0.25430        3.56250
H         -1.69890        0.43150        2.06820
H         -2.90620       -2.95160        1.00840
H         -1.22710       -3.21970        1.42120
H         -2.29910       -0.87150       -0.22600
H         -1.38120       -2.23490       -0.84750
H         -5.21600       -2.12660        0.66310
H         -4.60360        2.80920        0.60010
H         -3.81040        1.46840        2.53160
H         -5.67960        2.92620       -1.62790
H         -7.13520       -0.65650       -3.47440
H         -6.34040       -2.00310       -1.55650
