25
omegapdb_1m5f_20.xyz
O         -0.85130       -3.51260       -1.32530
C         -0.39710       -2.25140       -1.35700
O          0.54340       -1.88280       -2.02860
C         -1.16630       -1.34340       -0.48300
N         -2.26040       -1.75880        0.15300
O         -2.70400       -0.65930        0.84940
C         -1.88280        0.39260        0.62990
C         -0.87320        0.01990       -0.22150
C          0.25030        0.86920       -0.71270
C          1.46770        0.91460        0.22900
N          2.38490        1.92180       -0.26970
C          2.11470       -0.46580        0.35910
O          3.15280       -0.76330       -0.17170
O          1.45470       -1.36550        1.13460
C         -2.22850        1.66660        1.30280
H         -0.27000       -4.00940       -1.92180
H         -0.08470        1.90000       -0.82270
H          0.57900        0.51550       -1.68830
H          1.12140        1.22430        1.21950
H          2.80920        1.55710       -1.11730
H          3.15880        2.01290        0.37900
H          0.62960       -0.96850        1.44270
H         -3.24290        1.97120        1.05130
H         -2.16420        1.56890        2.38550
H         -1.54100        2.44620        0.98380
