39
omegacsd_FIBREN_03.xyz
N         -3.61190       -1.44810       -1.26800
C         -2.39600       -1.73090       -1.75930
N         -1.21150       -1.23680       -1.34000
C         -1.18010       -0.37460       -0.31620
C         -2.40100       -0.00470        0.27090
C         -3.53180       -0.58500       -0.26750
O         -4.60550       -0.10230        0.43110
C         -4.04440        0.74520        1.35170
N         -2.74300        0.84620        1.30820
C         -4.97630        1.43240        2.27140
N          0.00110        0.09900        0.15370
C          1.23360       -0.08850       -0.57890
C          1.49270        1.09020       -1.52680
C          1.69370        2.38110       -0.78200
O          1.28940        2.62560        0.33490
O          2.37820        3.28050       -1.51920
C          2.41730       -0.32350        0.33420
C          2.32620       -0.22510        1.72250
C          3.44840       -0.43760        2.52170
C          4.67520       -0.75250        1.94380
C          4.77350       -0.86240        0.55780
C          3.65210       -0.64840       -0.23810
C         -2.32980       -2.69760       -2.90040
H         -5.68690        2.03800        1.71170
H         -5.54020        0.70660        2.85470
H         -4.40320        2.06780        2.93820
H         -0.05340        0.92860        0.72950
H          1.08100       -0.97360       -1.19550
H          2.36080        0.91090       -2.15810
H          0.63300        1.21560       -2.18970
H          2.43050        4.07980       -0.97230
H          1.37600        0.00410        2.18220
H          3.36100       -0.35610        3.59660
H          5.54420       -0.91730        2.56570
H          5.71810       -1.11910        0.09780
H          3.73690       -0.75120       -1.31320
H         -1.83460       -2.23730       -3.75380
H         -1.74310       -3.57040       -2.61710
H         -3.33040       -3.00910       -3.18240
