36
omegapdb_1qxw_25.xyz
C          4.69220        0.55220       -1.13810
C          4.41280        1.23790        0.17690
C          3.92210       -0.15930       -0.06780
N          2.50950       -0.31350       -0.27030
C          1.79950       -0.49820        0.98670
C          0.30010       -0.69460        0.79420
C         -0.40970        0.55090        0.21680
N         -0.13010        0.79350       -1.19520
C         -1.92240        0.55850        0.44950
C         -2.70260       -0.61920       -0.13110
C         -4.21530       -0.39580       -0.10670
C         -4.68380        0.66650       -1.09410
O          0.18890       -1.83280       -0.04280
O         -0.29320       -0.93580        2.05340
H          5.70140        0.22810       -1.33800
H          4.12540        0.88420       -1.99360
H          5.23430        1.38040        0.86130
H          3.66010        2.01130        0.17270
H          4.44060       -0.95270        0.46610
H          2.32850       -1.12230       -0.85630
H          2.16970       -1.37210        1.54720
H          1.95380        0.38140        1.61090
H         -0.00500        1.40080        0.77150
H          0.87850        0.79790       -1.31230
H         -0.45010       -0.00400       -1.73280
H         -2.12370        0.60940        1.51890
H         -2.27780        1.48400       -0.00330
H         -2.48410       -1.51560        0.45560
H         -2.40460       -0.81120       -1.16720
H         -4.51500       -0.12060        0.90710
H         -4.71750       -1.33790       -0.33310
H         -5.76830        0.76230       -1.08010
H         -4.26380        1.64420       -0.86700
H         -4.38380        0.40500       -2.10910
H         -0.75200       -1.98600       -0.18750
H          0.18530       -1.67730        2.44450
