40
omegapdb_2byh_19.xyz
O          5.44640        2.36710       -0.20160
C          5.42010        1.33420        0.44930
C          6.69000        0.61150        0.82360
C          4.11750        0.75210        0.89610
C          2.93720        1.41820        0.54630
C          1.70440        0.92430        0.94290
C          1.63510       -0.26540        1.67630
C          2.80610       -0.93110        2.03700
C          4.04230       -0.42020        1.65430
N          0.38680       -0.78650        2.08820
C         -0.77180       -0.82380        1.36160
O         -1.86010       -0.86220        1.95130
C         -0.66610       -0.88010       -0.09600
C          0.44750       -1.27100       -0.87480
N          0.14910       -1.32280       -2.17650
N         -1.13930       -0.97210       -2.22190
C         -1.71220       -0.70370       -1.01660
C         -3.13150       -0.36110       -0.99090
C         -3.96530       -0.95960       -1.95010
C         -5.28650       -0.57480       -2.11210
Cl        -6.27430       -1.34350       -3.30070
C         -5.82480        0.43270       -1.30540
O         -7.12070        0.79100       -1.49980
C         -5.01870        0.99900       -0.32500
C         -3.69210        0.61340       -0.14600
O         -2.98280        1.23930        0.82710
H          6.68490       -0.40260        0.42530
H          7.53440        1.15890        0.41820
H          6.78530        0.54070        1.90660
H          3.01350        2.33220       -0.02550
H          0.79140        1.44730        0.69130
H          2.73950       -1.85250        2.60010
H          4.94110       -0.94830        1.93880
H          0.22370       -0.87850        3.08190
H          1.44010       -1.53130       -0.55170
H         -1.58950       -0.87040       -3.11810
H         -3.58920       -1.76350       -2.56860
H         -7.33760        1.47970       -0.86140
H         -5.41350        1.75870        0.33800
H         -2.56050        0.52430        1.35410
