45
omegacsd_SEYMIS_01.xyz
O         -5.32000       -1.95900        0.23470
N         -5.02370       -0.93830       -0.64500
C         -3.77030       -0.59010       -0.38650
C         -3.22790       -1.37640        0.67220
C         -1.87300       -1.41030        1.26950
O         -1.65490       -1.87020        2.38750
N         -0.89640       -0.91520        0.46120
C          0.43730       -0.74190        0.82540
C          1.06480       -1.16360        1.99890
N          2.37070       -0.77250        1.93340
C          3.33840       -1.03480        2.98700
C          2.59380       -0.11340        0.75130
C          1.39350       -0.08120        0.03900
C          3.89500        0.42880        0.39480
O          4.90440        0.36810        1.07520
O          3.84750        1.02480       -0.81700
C          5.09950        1.58920       -1.24800
C          4.85710        2.20720       -2.60220
C         -4.25470       -2.21420        1.02050
C         -4.40150       -3.29130        2.02470
C         -3.15590        0.49060       -1.16760
C         -3.24860        0.48220       -2.56390
C         -2.66130        1.50100       -3.30910
C         -1.97460        2.53180       -2.66950
C         -1.88620        2.54880       -1.27790
C         -2.47680        1.53600       -0.52750
H         -1.17250       -0.53900       -0.43260
H          0.67290       -1.69700        2.84350
H          4.17270       -1.61060        2.59960
H          3.72200       -0.10280        3.39050
H          2.82710       -1.59450        3.76460
H          1.25470        0.37200       -0.92790
H          5.84900        0.80030       -1.28660
H          5.42760        2.32460       -0.51520
H          4.52250        1.45510       -3.31280
H          4.10020        2.98550       -2.53870
H          5.77830        2.65050       -2.97600
H         -3.43710       -3.47060        2.48880
H         -5.11000       -2.99530        2.79750
H         -4.77100       -4.20110        1.55500
H         -3.77920       -0.32560       -3.04910
H         -2.73500        1.48700       -4.38790
H         -1.51380        3.31850       -3.25070
H         -1.36390        3.35180       -0.77630
H         -2.42040        1.55470        0.55310
