39
omegacsd_FIBREN_04.xyz
N         -3.61820       -1.41480       -1.29270
C         -2.40330       -1.69780       -1.78580
N         -1.21580       -1.22420       -1.35120
C         -1.18070       -0.38460       -0.30880
C         -2.40030       -0.01600        0.28140
C         -3.53440       -0.57410       -0.27370
O         -4.60630       -0.09780        0.43190
C         -4.04100        0.72400        1.37300
N         -2.73860        0.81450        1.33640
C         -4.97040        1.39900        2.30420
N          0.00390        0.06590        0.17750
C          1.23230       -0.10900       -0.56620
C          1.47270        1.07340       -1.51480
C          1.67470        2.36330       -0.76830
O          1.26950        2.60650        0.34860
O          2.36100        3.26310       -1.50320
C          2.42460       -0.33240        0.33790
C          3.65920       -0.64100       -0.24370
C          4.78860       -0.84340        0.54360
C          4.69860       -0.73800        1.93070
C          3.47230       -0.43910        2.51780
C          2.34190       -0.23810        1.72700
C         -2.34250       -2.63100       -2.95480
H         -5.67260        2.02390        1.75540
H         -5.54360        0.66550        2.86840
H         -4.39440        2.01370        2.98780
H         -0.04770        0.89310        0.75730
H          1.08360       -0.99440       -1.18310
H          2.33390        0.90070       -2.15710
H          0.60390        1.19440       -2.16650
H          2.41360        4.06120       -0.95460
H          3.73710       -0.73960       -1.31970
H          5.73300       -1.08740        0.07660
H          5.57380       -0.89390        2.54600
H          3.39130       -0.36140        3.59350
H          1.39260       -0.02220        2.19480
H         -1.67610       -3.46330       -2.73580
H         -1.94110       -2.11390       -3.82550
H         -3.33520       -3.00470       -3.18430
