45
omegacsd_FABSOQ10_01.xyz
S          0.71430       -0.42070       -0.35230
C         -0.80570        0.25740        0.10080
C         -1.08770       -0.01910        1.42640
C         -0.08300       -0.78230        2.05210
C          0.97680       -1.08460        1.21700
C          2.14520       -1.98280        1.48800
O          1.83180       -3.34350        1.19550
C          3.39150       -1.50640        0.77110
C          3.82750       -0.19170        0.93770
C          4.97350        0.27850        0.29960
C          5.69980       -0.57930       -0.53180
O          6.82590       -0.22660       -1.21130
C          7.27120        1.10740       -1.03940
C          5.27290       -1.89860       -0.69930
C          4.13420       -2.35710       -0.04940
C         -1.56380        1.12780       -0.86090
O         -1.07240        2.46980       -0.84650
C         -3.02310        1.15100       -0.49880
C         -3.85840        0.12010       -0.91960
C         -5.20000        0.07590       -0.54240
C         -5.71760        1.08640        0.27230
O         -7.00900        1.14810        0.70080
C         -7.86150        0.09900        0.27710
C         -4.88540        2.12820        0.69220
C         -3.55100        2.15940        0.31120
H         -1.99390        0.32330        1.90490
H         -0.12130       -1.12460        3.07670
H          2.32570       -1.97040        2.56550
H          1.38100       -3.34610        0.34300
H          3.26490        0.48270        1.57230
H          5.28110        1.30130        0.45390
H          8.16610        1.20380       -1.64470
H          7.51560        1.31280        0.00410
H          6.52250        1.82310       -1.38320
H          5.85170       -2.54930       -1.33990
H          3.82300       -3.38520       -0.16370
H         -1.45920        0.71190       -1.86930
H         -0.11380        2.41360       -0.76790
H         -3.46180       -0.66680       -1.55020
H         -5.82030       -0.73560       -0.88990
H         -7.94730        0.07210       -0.81050
H         -8.83330        0.31040        0.71010
H         -7.50770       -0.86920        0.63570
H         -5.30830        2.90520        1.31390
H         -2.91090        2.97050        0.62610
