57
omegacsd_SPIRIL_12.xyz
C         -2.09580       -0.53470       -0.94580
C         -2.88250       -1.37100        0.07570
C         -2.80390       -2.83390       -0.36660
O         -1.83380       -3.56280       -0.28350
N         -4.01510       -3.15230       -0.89470
C         -4.96410       -2.07560       -0.88300
N         -4.32960       -1.11980        0.00880
C         -4.89750        0.14720        0.08980
C         -4.25050        1.21670        0.73510
C         -4.86300        2.46000        0.84540
C         -6.13450        2.68270        0.32190
C         -6.78560        1.63290       -0.31740
C         -6.17970        0.38530       -0.43880
C         -2.29040       -1.20290        1.49020
C         -1.04260       -0.32950        1.48620
N         -0.10510       -0.86860        0.51770
C          1.23010       -0.32360        0.66250
C          2.26460       -1.12310       -0.13230
C          3.64750       -0.63010        0.15480
C          4.30060        0.34830       -0.50500
C          5.66300        0.74190       -0.09190
C          6.09780        2.06960       -0.21100
C          7.37110        2.45630        0.19740
C          8.22410        1.49660        0.71810
C          7.84360        0.16840        0.83260
C          6.56720       -0.19980        0.42100
F          9.45910        1.86000        1.10880
C          3.69810        1.10090       -1.65810
C         -0.58510       -0.75550       -0.86310
H         -2.44170       -0.76910       -1.95550
H         -2.32960        0.51510       -0.77130
H         -4.18130       -4.04380       -1.32970
H         -5.12400       -1.65900       -1.88850
H         -5.92890       -2.39560       -0.48350
H         -3.27120        1.08190        1.16310
H         -4.33430        3.25890        1.34800
H         -6.60580        3.65080        0.41160
H         -7.77330        1.77780       -0.73400
H         -6.72050       -0.40250       -0.94150
H         -1.99140       -2.18570        1.85340
H         -3.05320       -0.80930        2.16080
H         -0.57350       -0.37500        2.46930
H         -1.28110        0.73250        1.30130
H          1.49930       -0.35760        1.72020
H          1.28050        0.73490        0.34750
H          2.04040       -1.06250       -1.19660
H          2.16740       -2.17050        0.15560
H          4.13810       -1.06240        1.02050
H          5.43090        2.82060       -0.61060
H          7.70430        3.48080        0.11680
H          8.54450       -0.55720        1.21930
H          6.27500       -1.23980        0.47220
H          4.39900        1.15880       -2.49120
H          2.77960        0.63650       -2.00730
H          3.45350        2.12470       -1.37030
H         -0.31220       -1.66090       -1.40510
H         -0.09920        0.09440       -1.36740
