25
omegapdb_1m5f_09.xyz
O         -1.68860       -3.69920       -0.69440
C         -0.83060       -2.66530       -0.72010
O          0.34260       -2.80560       -0.97860
C         -1.43230       -1.35240       -0.39790
N         -2.70770       -1.30860       -0.01670
O         -2.96940        0.00900        0.23380
C         -1.85300        0.74760        0.00430
C         -0.83620       -0.07210       -0.41370
C          0.56220        0.30100       -0.76240
C          1.48870        0.06450        0.43850
N          1.01960        0.82160        1.59170
C          2.90360        0.49240        0.12280
O          3.60200        1.16400        0.84820
O          3.31830        0.01690       -1.06820
C         -1.95580        2.20670        0.23470
H         -2.56130       -3.34790       -0.45130
H          0.90470       -0.28710       -1.61000
H          0.60130        1.35810       -1.02670
H          1.53740       -1.01730        0.60630
H          1.82370        1.09700        2.14450
H          0.43140        0.24220        2.17480
H          4.23690        0.31150       -1.16290
H         -2.38150        2.71560       -0.62950
H         -2.59140        2.40520        1.09500
H         -0.96440        2.60230        0.43760
