34
omegapdb_2f7p_11.xyz
C         -0.72330       -0.59750        0.39740
N          0.04760       -0.31440        1.60630
C          1.04420        0.75210        1.51930
C          2.13170        0.56740        0.48380
C          2.60560       -0.69870        0.13500
C          3.63340       -0.84450       -0.79490
C          4.20590        0.28050       -1.38370
C          3.74490        1.54930       -1.03770
C          2.71320        1.68790       -0.11350
C         -1.86880       -1.57870        0.79350
O         -2.23780       -1.37490        2.14900
C         -3.07240       -1.21560       -0.12190
O         -4.13470       -0.66110        0.63120
C         -2.52950       -0.12500       -1.05100
O         -3.53390        0.71800       -1.55270
C         -1.48370        0.58770       -0.18710
S         -0.50440        1.74480       -1.19090
H         -0.12120       -1.04500       -0.40210
H          0.51300       -1.17120        1.89310
H          1.49820        0.83700        2.50900
H          0.52580        1.69180        1.33050
H          2.17570       -1.58520        0.58580
H          3.98450       -1.83300       -1.05780
H          5.00060        0.16910       -2.10840
H          4.17980        2.42770       -1.49450
H          2.34350        2.67370        0.13930
H         -1.56190       -2.61670        0.65830
H         -1.53470       -0.78050        2.48640
H         -3.44290       -2.07610       -0.67840
H         -3.82210       -0.71430        1.55210
H         -2.01570       -0.56970       -1.90620
H         -4.17930        0.77130       -0.83130
H         -1.99060        1.12650        0.61740
H         -1.59090        2.21760       -1.81960
