36
omegapdb_1qxw_29.xyz
C          3.23970        2.34410       -0.65410
C          3.98010        1.04880       -0.91560
C          3.09080        1.20270        0.29590
N          1.82320        0.53210        0.39520
C          1.98820       -0.90060        0.60450
C          0.74770       -1.63900        1.10500
C         -0.49970       -1.51020        0.20770
N         -1.33410       -2.68990        0.48460
C         -1.25100       -0.19450        0.38940
C         -2.28220        0.05390       -0.70320
C         -3.05730        1.34880       -0.49610
C         -4.08080        1.59910       -1.59550
O          1.15050       -2.97950        1.15940
O          0.33450       -1.19060        2.38550
H          3.80830        3.20440       -0.33830
H          2.39540        2.56830       -1.28990
H          3.60780        0.42570       -1.71570
H          5.05110        1.03800       -0.78220
H          3.59010        1.29590        1.25100
H          1.31110        0.69330       -0.46490
H          2.75060       -1.03620        1.37460
H          2.34740       -1.42770       -0.28650
H         -0.15320       -1.60740       -0.82530
H         -1.96080       -2.87790       -0.28550
H         -1.90650       -2.50520        1.30100
H         -1.73860       -0.22410        1.36620
H         -0.54950        0.63690        0.44120
H         -2.99110       -0.77780       -0.74910
H         -1.78280        0.08720       -1.67720
H         -3.55680        1.31280        0.47440
H         -2.35300        2.18200       -0.44760
H         -4.80690        0.78750       -1.64060
H         -4.62680        2.52690       -1.43330
H         -3.59560        1.66270       -2.56940
H          0.31120       -3.46690        1.04110
H          0.99830       -1.52380        3.00050
