57
omegacsd_SPIRIL_08.xyz
C         -1.86160        0.38380        0.75740
C         -2.30540       -1.00920        0.33890
C         -2.49300       -1.93310        1.54330
O         -1.76010       -2.02420        2.51280
N         -3.61760       -2.66680        1.28740
C         -4.13040       -2.40400       -0.05060
N         -3.60230       -1.08240       -0.39440
C         -4.53990       -0.03290       -0.09860
C         -5.17970        0.10210        1.14040
C         -6.09010        1.13590        1.34840
C         -6.36880        2.04500        0.32890
C         -5.74160        1.90850       -0.90770
C         -4.83600        0.87100       -1.11950
C         -1.21160       -1.64600       -0.53490
C         -0.86390       -0.72560       -1.70490
N         -0.46640        0.61770       -1.32790
C          0.93380        0.83330       -1.02560
C          1.50760        0.35940        0.33000
C          2.96370        0.69490        0.40030
C          3.97880       -0.09990        0.00450
C          5.37320        0.38240        0.06980
C          5.69060        1.72710       -0.17100
C          6.99940        2.19000       -0.08790
C          8.00590        1.29090        0.22990
C          7.74030       -0.05010        0.45510
C          6.42490       -0.49640        0.36570
F          9.27550        1.72960        0.30660
C          3.76880       -1.50420       -0.49170
C         -1.42770        1.24250       -0.43540
H         -2.65810        0.88960        1.30550
H         -1.03750        0.23280        1.45520
H         -3.78600       -3.52260        1.79270
H         -5.21810       -2.38510       -0.06880
H         -3.77220       -3.15070       -0.76420
H         -4.96110       -0.59800        1.93580
H         -6.57680        1.23420        2.30940
H         -7.07300        2.84830        0.49560
H         -5.96150        2.60210       -1.70780
H         -4.35320        0.73720       -2.07810
H         -1.55860       -2.61070       -0.91450
H         -0.34270       -1.83510        0.09610
H         -0.06790       -1.16490       -2.30880
H         -1.75280       -0.65130       -2.33830
H          1.51610        0.35910       -1.82000
H          1.12640        1.90770       -1.10320
H          1.34590       -0.70860        0.45860
H          0.98200        0.86200        1.14210
H          3.21580        1.68190        0.77350
H          4.90390        2.41340       -0.45330
H          7.24740        3.22350       -0.28190
H          8.55100       -0.72300        0.69430
H          6.21730       -1.54150        0.54840
H          4.35520       -1.68150       -1.39340
H          4.08710       -2.23840        0.25070
H          2.72430       -1.70040       -0.71960
H         -2.31670        1.49850       -1.01710
H         -1.00290        2.18190       -0.07620
