66
omegapdb_1z1r_28.xyz
C          0.66680       -0.03930        0.89800
C          1.08670       -1.24860        0.04370
C         -0.11200       -2.12020       -0.17320
C         -0.57570       -2.96460        0.83990
C         -1.81540       -3.57940        0.74370
C         -2.62880       -3.35500       -0.37160
C         -2.14340       -2.58300       -1.43000
C         -0.89960       -1.96640       -1.31260
O         -3.85930       -3.94150       -0.34010
C         -4.89850       -3.33760       -1.11900
C         -5.54920       -2.16380       -0.40390
C         -4.66310       -0.95860       -0.09860
C         -4.17310       -0.26600       -1.34790
O         -4.55920       -0.58920       -2.46720
N         -3.26820        0.76050       -1.22740
C         -2.70460        1.44980       -0.07490
C         -1.69620        0.59000        0.70130
O         -2.03800       -0.10790        1.65450
N         -0.41530        0.69780        0.27890
C         -3.72670        2.02740        0.90540
C         -3.01580        3.03580        1.79140
O         -2.83060        4.18860        1.42780
N         -2.59900        2.54660        2.99250
C          1.82590        0.88580        1.24860
O          1.30760        1.92570        2.07500
C          2.51220        1.47520        0.02610
N          3.50850        2.44690        0.47520
S          4.59760        2.93030       -0.69900
O          3.95390        3.01340       -1.99770
O          5.28710        4.07010       -0.13350
C          5.66490        1.51850       -0.71850
C          6.49660        1.29160        0.37700
C          7.33410        0.18150        0.36010
C          7.33320       -0.68290       -0.73600
C          6.49870       -0.43760       -1.82440
C          5.65400        0.67110       -1.82300
H          0.24920       -0.41090        1.83390
H          1.88350       -1.78430        0.56560
H          1.48410       -0.91170       -0.91620
H          0.01960       -3.10930        1.73390
H         -2.19530       -4.20390        1.54030
H         -2.72730       -2.41890       -2.32170
H         -0.55080       -1.33630       -2.12240
H         -4.54460       -3.05090       -2.10510
H         -5.63620       -4.12770       -1.24430
H         -5.95930       -2.52910        0.53860
H         -6.38740       -1.84030       -1.02320
H         -5.25670       -0.23700        0.46630
H         -3.81800       -1.21590        0.53980
H         -3.05010        1.15510       -2.13020
H         -2.16650        2.29960       -0.49900
H         -0.22790        1.28660       -0.51520
H         -4.49250        2.55720        0.34410
H         -4.17080        1.23050        1.49420
H         -2.51710        1.54710        3.09160
H         -1.95210        3.12190        3.50570
H          2.56400        0.29610        1.79980
H          2.00800        2.18460        2.68220
H          3.03580        0.68710       -0.51550
H          1.79290        1.93360       -0.65760
H          3.08060        3.29220        0.84680
H          6.48770        1.97910        1.21090
H          7.99000       -0.00850        1.19830
H          7.98780       -1.54330       -0.74270
H          6.50630       -1.10510       -2.67480
H          5.00720        0.89670       -2.65890
