61
omegapdb_1v2k_00.xyz
N          7.63280        2.84130       -1.37880
C          7.08360        1.90190       -2.15990
C          6.30000        0.84900       -1.70680
C          6.04140        0.70320       -0.33180
C          6.60910        1.69370        0.48960
C          7.37730        2.70550       -0.07060
N          5.32210       -0.36560        0.18000
C          4.71130       -0.22950        1.49990
C          3.45000        0.63000        1.42760
C          2.44960        0.10700        0.38880
C          3.15360       -0.19530       -0.94940
C          4.39450       -1.05230       -0.71150
C          1.73730       -1.13960        0.90150
O          2.12990       -1.74710        1.89720
N          0.67600       -1.59460        0.16190
C         -0.09940       -0.79360       -0.77240
C         -1.36850       -0.29570       -0.08310
N         -2.13350       -1.38420        0.53420
C         -1.31460       -2.26270        1.38590
C         -0.06570       -2.74590        0.66220
S         -3.19490       -2.15310       -0.49590
O         -3.73950       -3.27250        0.24550
O         -2.61190       -2.36820       -1.81300
C         -4.42490       -0.88850       -0.67500
C         -5.11800       -0.47610        0.44300
C         -6.12110        0.50540        0.31430
C         -6.39980        1.05520       -0.97840
C         -5.66520        0.59630       -2.09660
C         -4.68780       -0.36420       -1.95540
C         -7.40300        2.04100       -1.10840
C         -8.09770        2.45840        0.00340
C         -7.83460        1.92410        1.28220
C         -6.86160        0.96410        1.43000
Cl        -9.32830        3.66680       -0.15190
H          7.27540        1.99460       -3.22250
H          5.91030        0.15490       -2.43480
H          6.47120        1.69100        1.55920
H          7.80950        3.45740        0.57900
H          5.42850        0.18360        2.20340
H          4.45460       -1.22730        1.84710
H          3.73490        1.64700        1.14740
H          2.97450        0.67000        2.40760
H          1.70380        0.88720        0.22330
H          2.47530       -0.70200       -1.63740
H          3.46150        0.74410       -1.41500
H          4.88540       -1.31230       -1.64550
H          4.11790       -1.99070       -0.22670
H         -0.37160       -1.41760       -1.62420
H          0.48220        0.04770       -1.13500
H         -1.10120        0.39880        0.71760
H         -2.01170        0.23330       -0.78790
H         -1.02080       -1.67250        2.25610
H         -1.93570       -3.09180        1.71500
H         -0.34180       -3.37510       -0.18580
H          0.58180       -3.29790        1.33720
H         -4.89510       -0.90390        1.41230
H         -5.88200        1.01100       -3.07290
H         -4.12420       -0.73170       -2.80100
H         -7.62380        2.46420       -2.07910
H         -8.40310        2.27660        2.13080
H         -6.65420        0.54750        2.40740
