25
omegapdb_1m5f_00.xyz
O         -1.83960       -3.07250       -1.83110
C         -0.93480       -2.29400       -1.22680
O          0.24050       -2.59580       -1.11690
C         -1.50740       -1.04150       -0.70570
N         -2.71990       -0.64410       -1.10110
O         -2.93370        0.53640       -0.43850
C         -1.87270        0.83190        0.34630
C         -0.91750       -0.14390        0.21620
C          0.40530       -0.18830        0.90160
C          1.47780        0.59090        0.13490
N          1.85870       -0.01460       -1.14160
C          2.71450        0.75090        1.03060
O          2.64230        1.14880        2.17010
O          3.85730        0.42640        0.42430
C         -1.94960        2.07570        1.14690
H         -1.34890       -3.84900       -2.14280
H          0.32970        0.24210        1.89880
H          0.73470       -1.22130        1.01390
H          1.11340        1.60540       -0.03930
H          1.51380       -0.96760       -1.20310
H          1.48020        0.49750       -1.92510
H          3.55560        0.14260       -0.47290
H         -1.06700        2.15930        1.77670
H         -2.83350        2.07270        1.78230
H         -1.99910        2.95200        0.50220
