41
omegacsd_CEJTIU_11.xyz
C         -5.88940       -1.53150        0.18590
N         -5.38720       -0.22110        0.54700
C         -6.22630        0.88530        0.13040
C         -4.00920       -0.03130        0.45430
C         -3.11620       -1.11820        0.44780
C         -1.74330       -0.91640        0.41160
C         -1.19810        0.36880        0.37010
C         -2.06840        1.46040        0.35360
C         -3.44390        1.25400        0.38690
N          0.20290        0.47890        0.31870
C          0.95050        1.63240        0.33580
O          0.52110        2.75800        0.44650
N          2.31930        1.32010        0.16550
C          3.38930        2.13980        0.48450
O          3.30590        3.18990        1.08160
C          4.73820        1.59860       -0.00190
C          4.76130        0.14270       -0.35900
C          4.92290       -0.82770        0.63640
C          4.87420       -2.18370        0.32400
C          4.65680       -2.59090       -0.99200
C          4.49610       -1.63500       -1.99290
C          4.54830       -0.27830       -1.67620
H         -5.50450       -2.29050        0.86370
H         -5.62930       -1.82050       -0.84080
H         -6.97180       -1.52710        0.28270
H         -6.04960        1.18630       -0.91010
H         -6.06510        1.75060        0.76960
H         -7.26670        0.59010        0.23650
H         -3.48100       -2.13280        0.47520
H         -1.08640       -1.77860        0.40660
H         -1.67270        2.46130        0.31760
H         -4.07710        2.12710        0.36900
H          0.70570       -0.38710        0.42390
H          2.55190        0.44710       -0.28290
H          5.45030        1.82680        0.78950
H          5.01170        2.21020       -0.86360
H          5.08890       -0.51410        1.65970
H          5.00740       -2.92060        1.10420
H          4.62060       -3.64350       -1.23570
H          4.33550       -1.94290       -3.01710
H          4.42770        0.46350       -2.45640
