66
omegapdb_1z1r_08.xyz
C          0.71350       -1.11130        1.66130
C          1.13360       -2.26070        0.72770
C         -0.06870       -2.85050        0.04740
C         -0.34980       -2.55630       -1.29230
C         -1.56480       -2.91900       -1.87200
C         -2.53080       -3.56500       -1.09970
C         -2.23630       -3.92900        0.21550
C         -1.01730       -3.57140        0.78110
O         -3.76920       -3.86570       -1.59710
C         -4.56510       -2.71540       -1.94160
C         -4.91050       -1.83630       -0.74650
C         -3.84650       -0.80440       -0.39470
C         -4.20010       -0.03660        0.86200
O         -5.18380       -0.29250        1.54100
N         -3.35160        0.98790        1.20820
C         -2.06170        1.27580        0.62040
C         -0.95830        0.71380        1.50140
O         -0.77240        1.14370        2.64370
N         -0.22900       -0.26740        0.93540
C         -1.88650        2.77460        0.43790
C         -2.84530        3.25080       -0.63860
O         -3.11130        2.56160       -1.61440
N         -3.35480        4.49180       -0.45220
C          1.92690       -0.33670        2.19650
O          1.68720        0.24190        3.46460
C          2.39320        0.72710        1.21510
N          3.60250        1.33550        1.76700
S          4.14330        2.68070        0.95320
O          5.12900        3.29840        1.81520
O          3.03550        3.45640        0.41820
C          4.94740        1.89850       -0.41900
C          6.12340        1.18650       -0.18880
C          6.75400        0.57130       -1.26490
C          6.21140        0.66940       -2.54740
C          5.03660        1.38770       -2.75980
C          4.39330        2.00960       -1.69090
H          0.20020       -1.53030        2.53190
H          1.65610       -3.00340        1.33120
H          1.83770       -1.88670       -0.01870
H          0.39040       -2.03410       -1.88820
H         -1.77440       -2.67940       -2.90570
H         -2.98690       -4.45760        0.78690
H         -0.81520       -3.82490        1.81500
H         -4.06580       -2.13710       -2.72440
H         -5.46870       -3.14690       -2.36450
H         -5.11830       -2.47150        0.11420
H         -5.84150       -1.31150       -0.96520
H         -2.88250       -1.28800       -0.22770
H         -3.70870       -0.09980       -1.21890
H         -3.53080        1.37420        2.12580
H         -2.03130        0.82700       -0.36840
H         -0.55380       -0.62000        0.04560
H         -2.03340        3.28700        1.38860
H         -0.86890        2.99200        0.10330
H         -3.12880        5.03940        0.35550
H         -3.96350        4.87280       -1.15490
H          2.73570       -1.05470        2.34780
H          0.81420        0.67560        3.39460
H          1.60470        1.46800        1.07350
H          2.63420        0.28900        0.24410
H          3.46460        1.58620        2.74610
H          6.52860        1.12860        0.81150
H          7.66920        0.01810       -1.10590
H          6.70820        0.19040       -3.37980
H          4.62300        1.46790       -3.75560
H          3.48820        2.58440       -1.82530
