41
omegacsd_CEJTIU_13.xyz
C         -6.28860        0.18870       -0.01140
N         -5.29000        0.89750        0.76460
C         -5.59550        1.02270        2.17560
C         -3.95670        0.66440        0.43090
C         -3.58980        0.14150       -0.82140
C         -2.26070       -0.04120       -1.18970
C         -1.23760        0.28330       -0.29670
C         -1.58500        0.78110        0.96110
C         -2.91220        0.96450        1.32420
N          0.13050        0.11280       -0.57330
C          0.69850       -0.28920       -1.75920
O          0.10780       -0.52000       -2.78950
N          2.09560       -0.43600       -1.59770
C          3.03720       -0.45800       -2.61370
O          2.80600       -0.22270       -3.77880
C          4.44380       -0.82690       -2.13130
C          4.68390       -0.66590       -0.65980
C          4.52860       -1.74530        0.21650
C          4.67970       -1.57600        1.59210
C          4.98940       -0.32010        2.10960
C          5.15110        0.76270        1.24560
C          4.99650        0.58990       -0.12720
H         -7.27230        0.44760        0.37110
H         -6.16860       -0.90130        0.03320
H         -6.25220        0.49530       -1.05440
H         -5.30500        0.13710        2.75570
H         -6.66570        1.17600        2.28640
H         -5.09590        1.89050        2.60110
H         -4.34580       -0.12610       -1.54280
H         -2.01770       -0.43000       -2.16420
H         -0.80720        1.02280        1.67650
H         -3.12180        1.34850        2.31010
H          0.75810        0.45920        0.13380
H          2.44860       -0.58890       -0.66530
H          4.60350       -1.86320       -2.43480
H          5.12700       -0.21380       -2.71680
H          4.29230       -2.72350       -0.18460
H          4.56120       -2.42230        2.25490
H          5.11090       -0.18710        3.17570
H          5.39900        1.73860        1.64040
H          5.11960        1.43300       -0.79590
