61
omegapdb_1v2k_12.xyz
N          8.85730        1.37160       -2.07390
C          8.53100        0.12530       -1.70240
C          7.30500       -0.25210       -1.17380
C          6.29840        0.71430       -0.99070
C          6.63450        2.02520       -1.37690
C          7.89350        2.28600       -1.90020
N          5.07070        0.39710       -0.47680
C          4.84110       -0.86460        0.21610
C          3.82820       -0.65530        1.33160
C          2.46760       -0.18960        0.79810
C          2.65610        0.59710       -0.51400
C          3.97850        1.34900       -0.52550
C          1.57340       -1.38540        0.51970
O          2.04560       -2.50390        0.32420
N          0.22760       -1.18150        0.43290
C         -0.59550       -2.35080        0.12630
C         -2.06240       -2.00210        0.31400
N         -2.20130       -1.32870        1.60230
C         -1.51230       -0.03200        1.70950
C         -0.47570        0.07130        0.59490
S         -3.67680       -1.41650        2.35100
O         -3.51490       -0.75890        3.62960
O         -4.12620       -2.78600        2.22830
C         -4.73320       -0.40110        1.35070
C         -5.32360       -0.95440        0.23210
C         -6.09900       -0.14270       -0.62260
C         -6.25540        1.24670       -0.31580
C         -5.64400        1.76850        0.84850
C         -4.88980        0.96390        1.67380
C         -7.02880        2.06170       -1.17160
C         -7.62040        1.51260       -2.28620
C         -7.47790        0.14450       -2.59820
C         -6.73000       -0.66560       -1.77610
Cl        -8.56720        2.50870       -3.33920
H          9.29690       -0.62820       -1.84400
H          7.13440       -1.29190       -0.93970
H          5.94360        2.84500       -1.25070
H          8.14320        3.30030       -2.18900
H          4.49600       -1.65080       -0.46110
H          5.78480       -1.18970        0.65240
H          3.70980       -1.58380        1.88610
H          4.22440        0.09900        2.01280
H          2.01020        0.46010        1.54550
H          1.83520        1.29640       -0.67630
H          2.65800       -0.09930       -1.35530
H          4.05760        1.92000       -1.45100
H          4.01550        2.06730        0.30540
H         -0.40950       -2.69250       -0.89440
H         -0.31410       -3.15570        0.80260
H         -2.44110       -1.38440       -0.50860
H         -2.64520       -2.91860        0.34650
H         -1.03570        0.02360        2.68590
H         -2.21090        0.80600        1.61520
H          0.22230        0.86500        0.83730
H         -0.96050        0.34860       -0.34470
H         -5.21990       -2.01320        0.03180
H         -5.78420        2.81460        1.09050
H         -4.44920        1.34570        2.58380
H         -7.15660        3.11260       -0.94960
H         -7.96070       -0.25100       -3.48030
H         -6.61840       -1.71730       -2.00740
