34
omegapdb_2f7p_19.xyz
C         -1.18120       -0.87040       -0.30200
N          0.26180       -0.74070       -0.32780
C          0.82900        0.54980        0.06480
C          2.32760        0.48520       -0.03400
C          3.03290       -0.50370        0.65880
C          4.42030       -0.56980        0.57530
C          5.12040        0.35070       -0.20510
C          4.42560        1.33560       -0.90230
C          3.03520        1.39810       -0.81690
C         -1.80430       -1.12150        1.07090
O         -1.52970       -0.12910        2.05860
C         -3.29190       -1.09350        0.72520
O         -4.13320       -0.99200        1.85730
C         -3.41100        0.15020       -0.19000
O         -3.58270        1.30990        0.62330
C         -2.04020        0.27820       -0.87540
S         -2.19650        0.24790       -2.68530
H         -1.41430       -1.76480       -0.88700
H          0.61220       -0.98880       -1.24620
H          0.52580        0.74280        1.09300
H          0.47600        1.38980       -0.54810
H          2.48180       -1.22030        1.25300
H          4.95650       -1.33630        1.11830
H          6.19850        0.29850       -0.26970
H          4.96180        2.04970       -1.51230
H          2.49410        2.16360       -1.35970
H         -1.47090       -2.06630        1.49430
H         -1.94580        0.69220        1.75010
H         -3.56530       -1.98960        0.16750
H         -3.54900       -0.71670        2.57840
H         -4.23560        0.06180       -0.90030
H         -4.28860        1.07290        1.24320
H         -1.63910        1.24650       -0.58190
H         -0.88060        0.28010       -2.93220
