41
omegacsd_CEJTIU_12.xyz
C         -5.26340        1.75160        1.83720
N         -4.91230        0.43340        1.34830
C         -6.03450       -0.39210        0.94800
C         -3.75230        0.33210        0.58710
C         -2.75420        1.32340        0.63290
C         -1.57500        1.18530       -0.08560
C         -1.34670        0.07130       -0.89600
C         -2.33470       -0.91130       -0.97690
C         -3.51260       -0.77230       -0.25020
N         -0.11810        0.01180       -1.58010
C          0.34120       -0.98710       -2.38360
O         -0.30950       -1.93360       -2.78810
N          1.68360       -0.81500       -2.79480
C          2.84210       -0.46910       -2.10620
O          3.91920       -0.58160       -2.65990
C          2.70810        0.04480       -0.67890
C          3.98110       -0.13020        0.09580
C          4.08260       -1.14180        1.05190
C          5.26260       -1.32250        1.76990
C          6.35370       -0.48890        1.53650
C          6.25890        0.52360        0.58320
C          5.07930        0.70060       -0.13380
H         -6.19480        1.67930        2.39200
H         -4.50350        2.12230        2.52220
H         -5.39040        2.48560        1.03130
H         -6.86630       -0.19500        1.61880
H         -6.35950       -0.19930       -0.08210
H         -5.78520       -1.44730        1.03700
H         -2.88240        2.20820        1.23610
H         -0.82510        1.96530       -0.01950
H         -2.18830       -1.76730       -1.61400
H         -4.25210       -1.55140       -0.34830
H          0.47100        0.82090       -1.48610
H          1.88840       -1.33760       -3.63700
H          2.45770        1.10910       -0.73610
H          1.88290       -0.45260       -0.17280
H          3.23420       -1.78960        1.23530
H          5.32800       -2.10940        2.50880
H          7.27030       -0.62600        2.09330
H          7.10360        1.17250        0.39660
H          5.01200        1.47970       -0.88160
