40
omegapdb_2byh_11.xyz
O          6.87010        1.06280        1.68690
C          5.77220        1.44040        2.06970
C          5.64010        2.56980        3.06220
C          4.52600        0.79860        1.56440
C          3.25180        1.19780        1.97440
C          2.10400        0.58150        1.48510
C          2.22830       -0.46250        0.56160
C          3.50620       -0.86780        0.14770
C          4.63890       -0.24630        0.64060
N          1.13590       -1.14740        0.02010
C         -0.20670       -0.91270        0.21570
O         -0.64990       -0.00030        0.90020
C         -1.05380       -1.90540       -0.47700
C         -0.75800       -3.26880       -0.66160
N         -1.77430       -3.92890       -1.23960
N         -2.69640       -2.98580       -1.42890
C         -2.34700       -1.74420       -0.99290
C         -3.21190       -0.58210       -1.16860
C         -2.66620        0.70510       -1.22620
C         -3.45950        1.82890       -1.38650
Cl        -2.73910        3.39450       -1.44870
C         -4.84680        1.70370       -1.50350
O         -5.58880        2.83120       -1.65720
C         -5.40070        0.42780       -1.46640
C         -4.60200       -0.69920       -1.30680
O         -5.15570       -1.95890       -1.28380
H          5.06060        3.38800        2.63630
H          6.63290        2.92160        3.32290
H          5.12280        2.23240        3.95960
H          3.13620        2.00270        2.68640
H          1.12480        0.89840        1.80080
H          3.60170       -1.67710       -0.56660
H          5.62570       -0.55380        0.32470
H          1.35670       -1.86190       -0.65530
H          0.11950       -3.81380       -0.35480
H         -3.59160       -3.22720       -1.82380
H         -1.60120        0.83990       -1.12920
H         -6.51720        2.58010       -1.71210
H         -6.47440        0.31050       -1.56850
H         -6.11350       -1.87170       -1.33550
