astex_1n2j_02.log
 OpenBabel09261812563D

 22 21  0  0  1  0  0  0  0  0999 V2000
   -2.1018    1.3105    0.2867 O   0  0  0  0  0  0  0  0  0  0  0  0
   -1.6398    0.2463   -0.0403 C   0  0  0  0  0  0  0  0  0  0  0  0
   -2.2493   -0.9260    0.2414 O   0  0  0  0  0  0  0  0  0  0  0  0
   -0.3542    0.0504   -0.8380 C   0  0  2  0  0  0  0  0  0  0  0  0
   -0.1813   -1.3044   -1.2222 O   0  0  0  0  0  0  0  0  0  0  0  0
    0.9107    0.5045   -0.0633 C   0  0  0  0  0  0  0  0  0  0  0  0
    2.1309    0.2523   -0.9560 C   0  0  0  0  0  0  0  0  0  0  0  0
    0.8244    1.9978    0.2702 C   0  0  0  0  0  0  0  0  0  0  0  0
    1.0469   -0.2915    1.2500 C   0  0  0  0  0  0  0  0  0  0  0  0
    1.3480   -1.6551    1.0785 O   0  0  0  0  0  0  0  0  0  0  0  0
   -3.0601   -0.6997    0.7273 H   0  0  0  0  0  0  0  0  0  0  0  0
   -0.4577    0.6905   -1.7287 H   0  0  0  0  0  0  0  0  0  0  0  0
   -1.0499   -1.6877   -1.4012 H   0  0  0  0  0  0  0  0  0  0  0  0
    2.0453    0.8067   -1.8985 H   0  0  0  0  0  0  0  0  0  0  0  0
    3.0374    0.5930   -0.4434 H   0  0  0  0  0  0  0  0  0  0  0  0
    2.2502   -0.8083   -1.1833 H   0  0  0  0  0  0  0  0  0  0  0  0
    1.7752    2.3279    0.7028 H   0  0  0  0  0  0  0  0  0  0  0  0
    0.0239    2.2217    0.9800 H   0  0  0  0  0  0  0  0  0  0  0  0
    0.6429    2.5934   -0.6318 H   0  0  0  0  0  0  0  0  0  0  0  0
    0.1291   -0.1553    1.8518 H   0  0  0  0  0  0  0  0  0  0  0  0
    1.8703    0.1394    1.8323 H   0  0  0  0  0  0  0  0  0  0  0  0
    0.7557   -1.9794    0.3826 H   0  0  0  0  0  0  0  0  0  0  0  0
  2  3  1  0  0  0  0
  2  1  2  0  0  0  0
  3 11  1  0  0  0  0
  4 12  1  6  0  0  0
  4  6  1  0  0  0  0
  4  2  1  0  0  0  0
  5  4  1  0  0  0  0
  6  8  1  0  0  0  0
  6  9  1  0  0  0  0
  7 15  1  0  0  0  0
  7  6  1  0  0  0  0
  8 17  1  0  0  0  0
  8 18  1  0  0  0  0
  9 21  1  0  0  0  0
  9 20  1  0  0  0  0
 10  9  1  0  0  0  0
 13  5  1  0  0  0  0
 14  7  1  0  0  0  0
 16  7  1  0  0  0  0
 19  8  1  0  0  0  0
 22 10  1  0  0  0  0
M  END
