astex_1of1_14.log
 OpenBabel09261812563D

 34 36  0  0  1  0  0  0  0  0999 V2000
    2.4825    2.4771    0.3434 O   0  0  0  0  0  0  0  0  0  0  0  0
    3.4281    1.4694    0.6824 C   0  0  0  0  0  0  0  0  0  0  0  0
    2.8592    0.0673    0.4808 C   0  0  2  0  0  0  0  0  0  0  0  0
    2.5184   -0.2217   -0.9988 C   0  0  1  0  0  0  0  0  0  0  0  0
    3.6278   -0.5396   -1.8053 O   0  0  0  0  0  0  0  0  0  0  0  0
    1.3825   -1.2580   -0.9712 C   0  0  0  0  0  0  0  0  0  0  0  0
    0.6122   -0.9114    0.3008 C   0  0  2  0  0  0  0  0  0  0  0  0
   -0.7665   -0.5143    0.1880 N   0  0  0  0  0  0  0  0  0  0  0  0
   -1.7190   -1.5210    0.0901 C   0  0  0  0  0  0  0  0  0  0  0  0
   -1.4457   -2.7036    0.1309 O   0  0  0  0  0  0  0  0  0  0  0  0
   -3.0110   -1.0512   -0.0579 N   0  0  0  0  0  0  0  0  0  0  0  0
   -3.4429    0.2724   -0.1798 C   0  0  0  0  0  0  0  0  0  0  0  0
   -4.6229    0.5291   -0.3260 O   0  0  0  0  0  0  0  0  0  0  0  0
   -2.3636    1.2620   -0.1196 C   0  0  0  0  0  0  0  0  0  0  0  0
   -1.1045    0.8227    0.0524 C   0  0  0  0  0  0  0  0  0  0  0  0
   -2.7384    2.7067   -0.2535 C   0  0  0  0  0  0  0  0  0  0  0  0
    1.5403   -0.1413    1.2120 C   0  0  1  0  0  0  0  0  0  0  0  0
    1.0975   -1.5313    1.5703 C   0  0  0  0  0  0  0  0  0  0  0  0
    2.6144    2.7140   -0.5813 H   0  0  0  0  0  0  0  0  0  0  0  0
    3.6809    1.6235    1.7369 H   0  0  0  0  0  0  0  0  0  0  0  0
    4.3497    1.5785    0.0952 H   0  0  0  0  0  0  0  0  0  0  0  0
    3.6154   -0.6588    0.8194 H   0  0  0  0  0  0  0  0  0  0  0  0
    2.1113    0.7026   -1.4289 H   0  0  0  0  0  0  0  0  0  0  0  0
    3.9741   -1.3907   -1.5050 H   0  0  0  0  0  0  0  0  0  0  0  0
    1.7862   -2.2784   -0.9219 H   0  0  0  0  0  0  0  0  0  0  0  0
    0.7498   -1.2029   -1.8612 H   0  0  0  0  0  0  0  0  0  0  0  0
   -3.7259   -1.7648   -0.1220 H   0  0  0  0  0  0  0  0  0  0  0  0
   -0.2565    1.5020    0.1079 H   0  0  0  0  0  0  0  0  0  0  0  0
   -3.2370    2.8903   -1.2109 H   0  0  0  0  0  0  0  0  0  0  0  0
   -1.8564    3.3507   -0.1873 H   0  0  0  0  0  0  0  0  0  0  0  0
   -3.4445    2.9975    0.5310 H   0  0  0  0  0  0  0  0  0  0  0  0
    1.1517    0.6805    1.8082 H   0  0  0  0  0  0  0  0  0  0  0  0
    1.8002   -2.3581    1.4913 H   0  0  0  0  0  0  0  0  0  0  0  0
    0.3766   -1.6257    2.3771 H   0  0  0  0  0  0  0  0  0  0  0  0
  1  2  1  0  0  0  0
  2 20  1  0  0  0  0
  3  4  1  6  0  0  0
  3  2  1  0  0  0  0
  3 22  1  0  0  0  0
  4 23  1  6  0  0  0
  4  6  1  0  0  0  0
  5 24  1  0  0  0  0
  5  4  1  0  0  0  0
  6 25  1  0  0  0  0
  6  7  1  0  0  0  0
  7 17  1  1  0  0  0
  7 18  1  0  0  0  0
  8  7  1  0  0  0  0
  9 10  2  0  0  0  0
  9  8  1  0  0  0  0
 11  9  1  0  0  0  0
 12 14  1  0  0  0  0
 12 11  1  0  0  0  0
 13 12  2  0  0  0  0
 14 15  2  0  0  0  0
 15 28  1  0  0  0  0
 15  8  1  0  0  0  0
 16 30  1  0  0  0  0
 16 14  1  0  0  0  0
 16 31  1  0  0  0  0
 17  3  1  6  0  0  0
 17 18  1  0  0  0  0
 17 32  1  0  0  0  0
 18 34  1  0  0  0  0
 19  1  1  0  0  0  0
 21  2  1  0  0  0  0
 26  6  1  0  0  0  0
 27 11  1  0  0  0  0
 29 16  1  0  0  0  0
 33 18  1  0  0  0  0
M  END
