astex_1n2j_16.log
 OpenBabel09261812563D

 22 21  0  0  1  0  0  0  0  0999 V2000
   -1.9811    1.5031   -0.0046 O   0  0  0  0  0  0  0  0  0  0  0  0
   -1.8711    0.3079   -0.0998 C   0  0  0  0  0  0  0  0  0  0  0  0
   -2.9034   -0.5177    0.1115 O   0  0  0  0  0  0  0  0  0  0  0  0
   -0.5780   -0.4302   -0.5097 C   0  0  2  0  0  0  0  0  0  0  0  0
   -0.7072   -1.8107   -0.1534 O   0  0  0  0  0  0  0  0  0  0  0  0
    0.7292    0.2113    0.0000 C   0  0  0  0  0  0  0  0  0  0  0  0
    0.9487    1.5746   -0.6668 C   0  0  0  0  0  0  0  0  0  0  0  0
    0.7011    0.3760    1.5252 C   0  0  0  0  0  0  0  0  0  0  0  0
    1.8923   -0.7213   -0.4092 C   0  0  0  0  0  0  0  0  0  0  0  0
    3.1607   -0.2050   -0.0582 O   0  0  0  0  0  0  0  0  0  0  0  0
   -2.5623   -1.4247   -0.0088 H   0  0  0  0  0  0  0  0  0  0  0  0
   -0.5585   -0.4290   -1.6074 H   0  0  0  0  0  0  0  0  0  0  0  0
   -0.4658   -1.8976    0.7803 H   0  0  0  0  0  0  0  0  0  0  0  0
    0.2019    2.3013   -0.3448 H   0  0  0  0  0  0  0  0  0  0  0  0
    1.9502    1.9360   -0.4174 H   0  0  0  0  0  0  0  0  0  0  0  0
    0.8893    1.4852   -1.7589 H   0  0  0  0  0  0  0  0  0  0  0  0
    0.5970   -0.5836    2.0546 H   0  0  0  0  0  0  0  0  0  0  0  0
    1.6335    0.8344    1.8716 H   0  0  0  0  0  0  0  0  0  0  0  0
   -0.1189    1.0308    1.8350 H   0  0  0  0  0  0  0  0  0  0  0  0
    1.7496   -1.7256    0.0133 H   0  0  0  0  0  0  0  0  0  0  0  0
    1.8996   -0.8288   -1.5003 H   0  0  0  0  0  0  0  0  0  0  0  0
    3.3000   -0.3669    0.8821 H   0  0  0  0  0  0  0  0  0  0  0  0
  2  1  2  0  0  0  0
  2  3  1  0  0  0  0
  4 12  1  6  0  0  0
  4  5  1  0  0  0  0
  4  2  1  0  0  0  0
  4  6  1  0  0  0  0
  5 13  1  0  0  0  0
  6  8  1  0  0  0  0
  7 15  1  0  0  0  0
  7 14  1  0  0  0  0
  7  6  1  0  0  0  0
  8 19  1  0  0  0  0
  8 18  1  0  0  0  0
  8 17  1  0  0  0  0
  9 10  1  0  0  0  0
  9  6  1  0  0  0  0
  9 20  1  0  0  0  0
 10 22  1  0  0  0  0
 11  3  1  0  0  0  0
 16  7  1  0  0  0  0
 21  9  1  0  0  0  0
M  END
