astex_1meh_12.log
 OpenBabel09261812563D

 43 44  0  0  0  0  0  0  0  0999 V2000
    2.5892    2.5664    0.3029 C   0  0  0  0  0  0  0  0  0  0  0  0
    2.1412    3.4324    1.0232 O   0  0  0  0  0  0  0  0  0  0  0  0
    2.2090    1.1603    0.2476 C   0  0  0  0  0  0  0  0  0  0  0  0
    2.9534    0.5170   -0.7236 C   0  0  0  0  0  0  0  0  0  0  0  0
    3.8717    1.5575   -1.3149 C   0  0  0  0  0  0  0  0  0  0  0  0
    3.5629    2.7784   -0.6168 O   0  0  0  0  0  0  0  0  0  0  0  0
    2.7697   -0.8262   -1.0031 C   0  0  0  0  0  0  0  0  0  0  0  0
    3.5355   -1.5479   -2.0802 C   0  0  0  0  0  0  0  0  0  0  0  0
    1.7825   -1.4722   -0.2279 C   0  0  0  0  0  0  0  0  0  0  0  0
    1.0136   -0.8426    0.7624 C   0  0  0  0  0  0  0  0  0  0  0  0
    1.2268    0.5215    0.9933 C   0  0  0  0  0  0  0  0  0  0  0  0
    0.5027    1.1864    1.9156 O   0  0  0  0  0  0  0  0  0  0  0  0
   -0.0723   -1.5760    1.5182 C   0  0  0  0  0  0  0  0  0  0  0  0
   -1.3906   -1.4839    0.7904 C   0  0  0  0  0  0  0  0  0  0  0  0
   -2.4719   -0.7838    1.1450 C   0  0  0  0  0  0  0  0  0  0  0  0
   -3.6952   -0.7873    0.2561 C   0  0  0  0  0  0  0  0  0  0  0  0
   -3.9767    0.5836   -0.3596 C   0  0  0  0  0  0  0  0  0  0  0  0
   -5.1889    0.5673   -1.2739 C   0  0  0  0  0  0  0  0  0  0  0  0
   -5.8788   -0.3943   -1.4788 O   0  0  0  0  0  0  0  0  0  0  0  0
   -5.4714    1.7475   -1.8769 O   0  0  0  0  0  0  0  0  0  0  0  0
   -2.5793    0.0601    2.3904 C   0  0  0  0  0  0  0  0  0  0  0  0
    1.5175   -2.7983   -0.4815 O   0  0  0  0  0  0  0  0  0  0  0  0
    2.4078   -3.6945    0.1678 C   0  0  0  0  0  0  0  0  0  0  0  0
    4.9325    1.3375   -1.1576 H   0  0  0  0  0  0  0  0  0  0  0  0
    3.7014    1.7258   -2.3836 H   0  0  0  0  0  0  0  0  0  0  0  0
    2.9585   -2.3953   -2.4594 H   0  0  0  0  0  0  0  0  0  0  0  0
    3.7528   -0.8797   -2.9209 H   0  0  0  0  0  0  0  0  0  0  0  0
    4.4959   -1.9320   -1.7135 H   0  0  0  0  0  0  0  0  0  0  0  0
    0.8185    2.1122    1.9240 H   0  0  0  0  0  0  0  0  0  0  0  0
   -0.1443   -1.1540    2.5238 H   0  0  0  0  0  0  0  0  0  0  0  0
    0.2044   -2.6304    1.6202 H   0  0  0  0  0  0  0  0  0  0  0  0
   -1.4228   -2.0440   -0.1455 H   0  0  0  0  0  0  0  0  0  0  0  0
   -4.5797   -1.0973    0.8273 H   0  0  0  0  0  0  0  0  0  0  0  0
   -3.5793   -1.5172   -0.5513 H   0  0  0  0  0  0  0  0  0  0  0  0
   -3.1039    0.9249   -0.9341 H   0  0  0  0  0  0  0  0  0  0  0  0
   -4.1482    1.3391    0.4199 H   0  0  0  0  0  0  0  0  0  0  0  0
   -4.8243    2.4160   -1.6127 H   0  0  0  0  0  0  0  0  0  0  0  0
   -1.7868   -0.1425    3.1129 H   0  0  0  0  0  0  0  0  0  0  0  0
   -3.5448   -0.1077    2.8840 H   0  0  0  0  0  0  0  0  0  0  0  0
   -2.5180    1.1285    2.1483 H   0  0  0  0  0  0  0  0  0  0  0  0
    3.4436   -3.5389   -0.1598 H   0  0  0  0  0  0  0  0  0  0  0  0
    2.0890   -4.7025   -0.1043 H   0  0  0  0  0  0  0  0  0  0  0  0
    2.3586   -3.5761    1.2582 H   0  0  0  0  0  0  0  0  0  0  0  0
  1  2  2  0  0  0  0
  3  1  1  0  0  0  0
  3 11  2  0  0  0  0
  4  3  1  0  0  0  0
  5 24  1  0  0  0  0
  5  4  1  0  0  0  0
  5  6  1  0  0  0  0
  6  1  1  0  0  0  0
  7  4  2  0  0  0  0
  7  9  1  0  0  0  0
  8 28  1  0  0  0  0
  8  7  1  0  0  0  0
  9 10  2  0  0  0  0
 10 11  1  0  0  0  0
 10 13  1  0  0  0  0
 11 12  1  0  0  0  0
 12 29  1  0  0  0  0
 13 31  1  0  0  0  0
 13 30  1  0  0  0  0
 14 15  2  0  0  0  0
 14 13  1  0  0  0  0
 15 21  1  0  0  0  0
 16 33  1  0  0  0  0
 16 15  1  0  0  0  0
 17 16  1  0  0  0  0
 17 36  1  0  0  0  0
 18 17  1  0  0  0  0
 19 18  2  0  0  0  0
 20 37  1  0  0  0  0
 20 18  1  0  0  0  0
 21 39  1  0  0  0  0
 21 38  1  0  0  0  0
 22  9  1  0  0  0  0
 22 23  1  0  0  0  0
 23 43  1  0  0  0  0
 25  5  1  0  0  0  0
 26  8  1  0  0  0  0
 27  8  1  0  0  0  0
 32 14  1  0  0  0  0
 34 16  1  0  0  0  0
 35 17  1  0  0  0  0
 40 21  1  0  0  0  0
 41 23  1  0  0  0  0
 42 23  1  0  0  0  0
M  END
