astex_1meh_17.log
 OpenBabel09261812563D

 43 44  0  0  0  0  0  0  0  0999 V2000
   -3.9458   -2.0075   -0.3004 C   0  0  0  0  0  0  0  0  0  0  0  0
   -3.8436   -3.1895   -0.0549 O   0  0  0  0  0  0  0  0  0  0  0  0
   -2.9984   -0.9421    0.0060 C   0  0  0  0  0  0  0  0  0  0  0  0
   -3.5007    0.2663   -0.4366 C   0  0  0  0  0  0  0  0  0  0  0  0
   -4.8371   -0.0336   -1.0685 C   0  0  0  0  0  0  0  0  0  0  0  0
   -5.0133   -1.4553   -0.9294 O   0  0  0  0  0  0  0  0  0  0  0  0
   -2.8047    1.4501   -0.2574 C   0  0  0  0  0  0  0  0  0  0  0  0
   -3.3426    2.7837   -0.7041 C   0  0  0  0  0  0  0  0  0  0  0  0
   -1.5615    1.3244    0.3982 C   0  0  0  0  0  0  0  0  0  0  0  0
   -1.0424    0.1128    0.8827 C   0  0  0  0  0  0  0  0  0  0  0  0
   -1.7836   -1.0549    0.6701 C   0  0  0  0  0  0  0  0  0  0  0  0
   -1.3218   -2.2452    1.1005 O   0  0  0  0  0  0  0  0  0  0  0  0
    0.2735    0.0504    1.6244 C   0  0  0  0  0  0  0  0  0  0  0  0
    1.4287   -0.2847    0.7149 C   0  0  0  0  0  0  0  0  0  0  0  0
    2.5356    0.4347    0.5048 C   0  0  0  0  0  0  0  0  0  0  0  0
    3.6054   -0.0803   -0.4320 C   0  0  0  0  0  0  0  0  0  0  0  0
    4.9343   -0.3726    0.2883 C   0  0  0  0  0  0  0  0  0  0  0  0
    5.9867   -0.9648   -0.6321 C   0  0  0  0  0  0  0  0  0  0  0  0
    6.4989   -2.0396   -0.4790 O   0  0  0  0  0  0  0  0  0  0  0  0
    6.3344   -0.1933   -1.6924 O   0  0  0  0  0  0  0  0  0  0  0  0
    2.8273    1.7652    1.1544 C   0  0  0  0  0  0  0  0  0  0  0  0
   -0.8229    2.4635    0.6221 O   0  0  0  0  0  0  0  0  0  0  0  0
   -0.0663    2.8810   -0.5075 C   0  0  0  0  0  0  0  0  0  0  0  0
   -5.6730    0.4633   -0.5646 H   0  0  0  0  0  0  0  0  0  0  0  0
   -4.8746    0.2094   -2.1354 H   0  0  0  0  0  0  0  0  0  0  0  0
   -3.1396    2.9741   -1.7657 H   0  0  0  0  0  0  0  0  0  0  0  0
   -2.8930    3.5939   -0.1244 H   0  0  0  0  0  0  0  0  0  0  0  0
   -4.4288    2.8319   -0.5678 H   0  0  0  0  0  0  0  0  0  0  0  0
   -1.9876   -2.9226    0.8672 H   0  0  0  0  0  0  0  0  0  0  0  0
    0.4343    0.9955    2.1458 H   0  0  0  0  0  0  0  0  0  0  0  0
    0.1958   -0.7361    2.3849 H   0  0  0  0  0  0  0  0  0  0  0  0
    1.3249   -1.2353    0.1893 H   0  0  0  0  0  0  0  0  0  0  0  0
    3.7672    0.6645   -1.2279 H   0  0  0  0  0  0  0  0  0  0  0  0
    3.2590   -0.9951   -0.9258 H   0  0  0  0  0  0  0  0  0  0  0  0
    5.3365    0.5465    0.7359 H   0  0  0  0  0  0  0  0  0  0  0  0
    4.7728   -1.0924    1.0939 H   0  0  0  0  0  0  0  0  0  0  0  0
    5.8504    0.6434   -1.6669 H   0  0  0  0  0  0  0  0  0  0  0  0
    3.2400    2.4694    0.4195 H   0  0  0  0  0  0  0  0  0  0  0  0
    3.5714    1.6677    1.9552 H   0  0  0  0  0  0  0  0  0  0  0  0
    1.9350    2.2243    1.5869 H   0  0  0  0  0  0  0  0  0  0  0  0
    0.4836    3.7730   -0.1992 H   0  0  0  0  0  0  0  0  0  0  0  0
   -0.7177    3.1328   -1.3541 H   0  0  0  0  0  0  0  0  0  0  0  0
    0.6391    2.0981   -0.8127 H   0  0  0  0  0  0  0  0  0  0  0  0
  1  2  2  0  0  0  0
  1  3  1  0  0  0  0
  3 11  2  0  0  0  0
  4  7  2  0  0  0  0
  4  3  1  0  0  0  0
  5  6  1  0  0  0  0
  5 24  1  0  0  0  0
  5  4  1  0  0  0  0
  6  1  1  0  0  0  0
  7  9  1  0  0  0  0
  8 28  1  0  0  0  0
  8  7  1  0  0  0  0
  8 27  1  0  0  0  0
  9 22  1  0  0  0  0
  9 10  2  0  0  0  0
 10 13  1  0  0  0  0
 11 10  1  0  0  0  0
 11 12  1  0  0  0  0
 13 30  1  0  0  0  0
 13 31  1  0  0  0  0
 14 13  1  0  0  0  0
 15 14  2  0  0  0  0
 15 21  1  0  0  0  0
 16 17  1  0  0  0  0
 16 15  1  0  0  0  0
 17 35  1  0  0  0  0
 17 36  1  0  0  0  0
 18 19  2  0  0  0  0
 18 17  1  0  0  0  0
 20 37  1  0  0  0  0
 20 18  1  0  0  0  0
 21 40  1  0  0  0  0
 21 39  1  0  0  0  0
 23 41  1  0  0  0  0
 23 22  1  0  0  0  0
 25  5  1  0  0  0  0
 26  8  1  0  0  0  0
 29 12  1  0  0  0  0
 32 14  1  0  0  0  0
 33 16  1  0  0  0  0
 34 16  1  0  0  0  0
 38 21  1  0  0  0  0
 42 23  1  0  0  0  0
 43 23  1  0  0  0  0
M  END
