astex_1meh_10.log
 OpenBabel09261812563D

 43 44  0  0  0  0  0  0  0  0999 V2000
   -0.5586    2.7098   -0.6706 C   0  0  0  0  0  0  0  0  0  0  0  0
    0.4254    3.1891   -1.1689 O   0  0  0  0  0  0  0  0  0  0  0  0
   -0.9593    1.2962   -0.5286 C   0  0  0  0  0  0  0  0  0  0  0  0
   -2.1349    1.2327    0.1927 C   0  0  0  0  0  0  0  0  0  0  0  0
   -2.5546    2.6482    0.4847 C   0  0  0  0  0  0  0  0  0  0  0  0
   -1.5324    3.4680   -0.0865 O   0  0  0  0  0  0  0  0  0  0  0  0
   -2.7181    0.0262    0.5526 C   0  0  0  0  0  0  0  0  0  0  0  0
   -3.9910   -0.0502    1.3527 C   0  0  0  0  0  0  0  0  0  0  0  0
   -2.0254   -1.1234    0.1438 C   0  0  0  0  0  0  0  0  0  0  0  0
   -0.8254   -1.1038   -0.5931 C   0  0  0  0  0  0  0  0  0  0  0  0
   -0.2974    0.1471   -0.9479 C   0  0  0  0  0  0  0  0  0  0  0  0
    0.8354    0.3112   -1.6774 O   0  0  0  0  0  0  0  0  0  0  0  0
   -0.1217   -2.4128   -0.9303 C   0  0  0  0  0  0  0  0  0  0  0  0
    1.3935   -2.3458   -0.8627 C   0  0  0  0  0  0  0  0  0  0  0  0
    2.1014   -1.8794    0.1768 C   0  0  0  0  0  0  0  0  0  0  0  0
    3.5845   -1.6130    0.0285 C   0  0  0  0  0  0  0  0  0  0  0  0
    3.8665   -0.1477   -0.3705 C   0  0  0  0  0  0  0  0  0  0  0  0
    3.4074    0.8118    0.7205 C   0  0  0  0  0  0  0  0  0  0  0  0
    3.8810    0.7676    1.8291 O   0  0  0  0  0  0  0  0  0  0  0  0
    2.4301    1.6838    0.4323 O   0  0  0  0  0  0  0  0  0  0  0  0
    1.4643   -1.4947    1.4896 C   0  0  0  0  0  0  0  0  0  0  0  0
   -2.5234   -2.3481    0.5275 O   0  0  0  0  0  0  0  0  0  0  0  0
   -3.4342   -2.9107   -0.4052 C   0  0  0  0  0  0  0  0  0  0  0  0
   -2.6115    2.8616    1.5581 H   0  0  0  0  0  0  0  0  0  0  0  0
   -3.5128    2.9126    0.0240 H   0  0  0  0  0  0  0  0  0  0  0  0
   -4.0259    0.7411    2.1096 H   0  0  0  0  0  0  0  0  0  0  0  0
   -4.0682   -1.0134    1.8625 H   0  0  0  0  0  0  0  0  0  0  0  0
   -4.8772    0.0683    0.7165 H   0  0  0  0  0  0  0  0  0  0  0  0
    1.2934   -0.5467   -1.7091 H   0  0  0  0  0  0  0  0  0  0  0  0
   -0.4117   -2.7382   -1.9380 H   0  0  0  0  0  0  0  0  0  0  0  0
   -0.5042   -3.1780   -0.2453 H   0  0  0  0  0  0  0  0  0  0  0  0
    1.9348   -2.6576   -1.7591 H   0  0  0  0  0  0  0  0  0  0  0  0
    4.1070   -1.8107    0.9706 H   0  0  0  0  0  0  0  0  0  0  0  0
    4.0118   -2.2697   -0.7379 H   0  0  0  0  0  0  0  0  0  0  0  0
    4.9479   -0.0110   -0.4734 H   0  0  0  0  0  0  0  0  0  0  0  0
    3.4116    0.0833   -1.3396 H   0  0  0  0  0  0  0  0  0  0  0  0
    2.0952    1.6103   -0.4804 H   0  0  0  0  0  0  0  0  0  0  0  0
    0.5240   -2.0285    1.6552 H   0  0  0  0  0  0  0  0  0  0  0  0
    2.1445   -1.7140    2.3185 H   0  0  0  0  0  0  0  0  0  0  0  0
    1.2472   -0.4203    1.5352 H   0  0  0  0  0  0  0  0  0  0  0  0
   -2.9505   -3.0865   -1.3752 H   0  0  0  0  0  0  0  0  0  0  0  0
   -3.7640   -3.8627    0.0152 H   0  0  0  0  0  0  0  0  0  0  0  0
   -4.3026   -2.2559   -0.5536 H   0  0  0  0  0  0  0  0  0  0  0  0
  1  3  1  0  0  0  0
  1  6  1  0  0  0  0
  2  1  2  0  0  0  0
  3  4  2  0  0  0  0
  4  5  1  0  0  0  0
  4  7  1  0  0  0  0
  5 24  1  0  0  0  0
  6  5  1  0  0  0  0
  7  8  1  0  0  0  0
  8 27  1  0  0  0  0
  8 26  1  0  0  0  0
  9 22  1  0  0  0  0
  9  7  2  0  0  0  0
 10  9  1  0  0  0  0
 11 10  2  0  0  0  0
 11  3  1  0  0  0  0
 12 11  1  0  0  0  0
 13 14  1  0  0  0  0
 13 10  1  0  0  0  0
 13 31  1  0  0  0  0
 14 15  2  0  0  0  0
 15 21  1  0  0  0  0
 16 15  1  0  0  0  0
 16 33  1  0  0  0  0
 17 16  1  0  0  0  0
 17 18  1  0  0  0  0
 18 19  2  0  0  0  0
 20 18  1  0  0  0  0
 21 40  1  0  0  0  0
 21 38  1  0  0  0  0
 21 39  1  0  0  0  0
 23 42  1  0  0  0  0
 23 22  1  0  0  0  0
 25  5  1  0  0  0  0
 28  8  1  0  0  0  0
 29 12  1  0  0  0  0
 30 13  1  0  0  0  0
 32 14  1  0  0  0  0
 34 16  1  0  0  0  0
 35 17  1  0  0  0  0
 36 17  1  0  0  0  0
 37 20  1  0  0  0  0
 41 23  1  0  0  0  0
 43 23  1  0  0  0  0
M  END
