astex_1meh_22.log
 OpenBabel09261812563D

 43 44  0  0  0  0  0  0  0  0999 V2000
    3.4225   -2.2385   -0.0004 C   0  0  0  0  0  0  0  0  0  0  0  0
    3.1388   -3.3756    0.2490 O   0  0  0  0  0  0  0  0  0  0  0  0
    2.6096   -1.0013    0.0522 C   0  0  0  0  0  0  0  0  0  0  0  0
    3.3975    0.0664   -0.3389 C   0  0  0  0  0  0  0  0  0  0  0  0
    4.7657   -0.4734   -0.6531 C   0  0  0  0  0  0  0  0  0  0  0  0
    4.6791   -1.8761   -0.4182 O   0  0  0  0  0  0  0  0  0  0  0  0
    2.9237    1.3680   -0.4155 C   0  0  0  0  0  0  0  0  0  0  0  0
    3.7865    2.5150   -0.8705 C   0  0  0  0  0  0  0  0  0  0  0  0
    1.5803    1.5406   -0.0530 C   0  0  0  0  0  0  0  0  0  0  0  0
    0.7431    0.4843    0.3452 C   0  0  0  0  0  0  0  0  0  0  0  0
    1.2694   -0.8174    0.3905 C   0  0  0  0  0  0  0  0  0  0  0  0
    0.5426   -1.8885    0.7666 O   0  0  0  0  0  0  0  0  0  0  0  0
   -0.6973    0.7455    0.7391 C   0  0  0  0  0  0  0  0  0  0  0  0
   -1.6861   -0.0642   -0.0694 C   0  0  0  0  0  0  0  0  0  0  0  0
   -2.7119   -0.8094    0.3743 C   0  0  0  0  0  0  0  0  0  0  0  0
   -3.6063   -1.5293   -0.6278 C   0  0  0  0  0  0  0  0  0  0  0  0
   -4.4970   -0.5959   -1.4719 C   0  0  0  0  0  0  0  0  0  0  0  0
   -5.4716    0.2203   -0.6379 C   0  0  0  0  0  0  0  0  0  0  0  0
   -6.6601    0.0468   -0.6274 O   0  0  0  0  0  0  0  0  0  0  0  0
   -4.9152    1.1818    0.1377 O   0  0  0  0  0  0  0  0  0  0  0  0
   -3.0964   -0.9845    1.8214 C   0  0  0  0  0  0  0  0  0  0  0  0
    1.0388    2.8055   -0.1146 O   0  0  0  0  0  0  0  0  0  0  0  0
    1.2932    3.5896    1.0425 C   0  0  0  0  0  0  0  0  0  0  0  0
    5.5453   -0.0551   -0.0061 H   0  0  0  0  0  0  0  0  0  0  0  0
    5.0555   -0.3073   -1.6975 H   0  0  0  0  0  0  0  0  0  0  0  0
    4.4183    2.8985   -0.0591 H   0  0  0  0  0  0  0  0  0  0  0  0
    3.1701    3.3396   -1.2370 H   0  0  0  0  0  0  0  0  0  0  0  0
    4.4549    2.2041   -1.6812 H   0  0  0  0  0  0  0  0  0  0  0  0
   -0.3997   -1.6597    0.7475 H   0  0  0  0  0  0  0  0  0  0  0  0
   -0.8285    0.5585    1.8118 H   0  0  0  0  0  0  0  0  0  0  0  0
   -0.8961    1.8099    0.5772 H   0  0  0  0  0  0  0  0  0  0  0  0
   -1.5142   -0.0294   -1.1484 H   0  0  0  0  0  0  0  0  0  0  0  0
   -2.9876   -2.1151   -1.3167 H   0  0  0  0  0  0  0  0  0  0  0  0
   -4.2482   -2.2430   -0.0988 H   0  0  0  0  0  0  0  0  0  0  0  0
   -5.0964   -1.1870   -2.1674 H   0  0  0  0  0  0  0  0  0  0  0  0
   -3.8652    0.0816   -2.0606 H   0  0  0  0  0  0  0  0  0  0  0  0
   -3.9500    1.1656    0.0357 H   0  0  0  0  0  0  0  0  0  0  0  0
   -2.4146   -0.4913    2.5179 H   0  0  0  0  0  0  0  0  0  0  0  0
   -4.1007   -0.5770    1.9901 H   0  0  0  0  0  0  0  0  0  0  0  0
   -3.1357   -2.0501    2.0764 H   0  0  0  0  0  0  0  0  0  0  0  0
    2.3697    3.7282    1.2031 H   0  0  0  0  0  0  0  0  0  0  0  0
    0.8240    4.5603    0.8711 H   0  0  0  0  0  0  0  0  0  0  0  0
    0.8576    3.1244    1.9368 H   0  0  0  0  0  0  0  0  0  0  0  0
  1  3  1  0  0  0  0
  1  2  2  0  0  0  0
  3 11  2  0  0  0  0
  4  3  1  0  0  0  0
  5  6  1  0  0  0  0
  5  4  1  0  0  0  0
  5 24  1  0  0  0  0
  6  1  1  0  0  0  0
  7  4  2  0  0  0  0
  7  9  1  0  0  0  0
  8  7  1  0  0  0  0
  8 26  1  0  0  0  0
  9 10  2  0  0  0  0
 10 11  1  0  0  0  0
 10 13  1  0  0  0  0
 11 12  1  0  0  0  0
 13 30  1  0  0  0  0
 14 15  2  0  0  0  0
 14 13  1  0  0  0  0
 15 21  1  0  0  0  0
 16 34  1  0  0  0  0
 16 15  1  0  0  0  0
 17 18  1  0  0  0  0
 17 16  1  0  0  0  0
 18 19  2  0  0  0  0
 18 20  1  0  0  0  0
 21 39  1  0  0  0  0
 21 40  1  0  0  0  0
 21 38  1  0  0  0  0
 22  9  1  0  0  0  0
 22 23  1  0  0  0  0
 23 41  1  0  0  0  0
 23 43  1  0  0  0  0
 25  5  1  0  0  0  0
 27  8  1  0  0  0  0
 28  8  1  0  0  0  0
 29 12  1  0  0  0  0
 31 13  1  0  0  0  0
 32 14  1  0  0  0  0
 33 16  1  0  0  0  0
 35 17  1  0  0  0  0
 36 17  1  0  0  0  0
 37 20  1  0  0  0  0
 42 23  1  0  0  0  0
M  END
