astex_1n2j_03.log
 OpenBabel09261812563D

 22 21  0  0  1  0  0  0  0  0999 V2000
   -2.4087    0.9458   -0.4208 O   0  0  0  0  0  0  0  0  0  0  0  0
   -1.7955   -0.0650   -0.1834 C   0  0  0  0  0  0  0  0  0  0  0  0
   -2.3045   -1.0637    0.5401 O   0  0  0  0  0  0  0  0  0  0  0  0
   -0.3543   -0.3081   -0.6571 C   0  0  2  0  0  0  0  0  0  0  0  0
   -0.0963   -1.6907   -0.4734 O   0  0  0  0  0  0  0  0  0  0  0  0
    0.6553    0.6049    0.0930 C   0  0  0  0  0  0  0  0  0  0  0  0
    0.5593    0.3846    1.6071 C   0  0  0  0  0  0  0  0  0  0  0  0
    0.3940    2.0764   -0.2504 C   0  0  0  0  0  0  0  0  0  0  0  0
    2.0762    0.2885   -0.3925 C   0  0  0  0  0  0  0  0  0  0  0  0
    2.4459   -1.0371   -0.0069 O   0  0  0  0  0  0  0  0  0  0  0  0
   -1.6306   -1.7738    0.5279 H   0  0  0  0  0  0  0  0  0  0  0  0
   -0.3273   -0.0534   -1.7273 H   0  0  0  0  0  0  0  0  0  0  0  0
    0.8615   -1.8049   -0.3272 H   0  0  0  0  0  0  0  0  0  0  0  0
    0.7157   -0.6650    1.8714 H   0  0  0  0  0  0  0  0  0  0  0  0
    1.3199    0.9783    2.1267 H   0  0  0  0  0  0  0  0  0  0  0  0
   -0.4215    0.6950    1.9839 H   0  0  0  0  0  0  0  0  0  0  0  0
   -0.6165    2.3737    0.0354 H   0  0  0  0  0  0  0  0  0  0  0  0
    0.4987    2.2599   -1.3268 H   0  0  0  0  0  0  0  0  0  0  0  0
    1.1120    2.7156    0.2764 H   0  0  0  0  0  0  0  0  0  0  0  0
    2.1237    0.3967   -1.4870 H   0  0  0  0  0  0  0  0  0  0  0  0
    2.7736    1.0126    0.0527 H   0  0  0  0  0  0  0  0  0  0  0  0
    3.2901   -1.2569   -0.4184 H   0  0  0  0  0  0  0  0  0  0  0  0
  1  2  2  0  0  0  0
  2  3  1  0  0  0  0
  4 12  1  6  0  0  0
  4  5  1  0  0  0  0
  4  2  1  0  0  0  0
  4  6  1  0  0  0  0
  5 13  1  0  0  0  0
  6  7  1  0  0  0  0
  7 14  1  0  0  0  0
  7 16  1  0  0  0  0
  7 15  1  0  0  0  0
  8 17  1  0  0  0  0
  8  6  1  0  0  0  0
  8 19  1  0  0  0  0
  9 10  1  0  0  0  0
  9 21  1  0  0  0  0
  9  6  1  0  0  0  0
 11  3  1  0  0  0  0
 18  8  1  0  0  0  0
 20  9  1  0  0  0  0
 22 10  1  0  0  0  0
M  END
