astex_1meh_30.log
 OpenBabel09261812563D

 43 44  0  0  0  0  0  0  0  0999 V2000
    4.1155   -1.7439   -0.1924 C   0  0  0  0  0  0  0  0  0  0  0  0
    4.2618   -2.8960    0.1033 O   0  0  0  0  0  0  0  0  0  0  0  0
    2.9915   -0.8134    0.0600 C   0  0  0  0  0  0  0  0  0  0  0  0
    3.3017    0.4192   -0.4858 C   0  0  0  0  0  0  0  0  0  0  0  0
    4.6628    0.3040   -1.1152 C   0  0  0  0  0  0  0  0  0  0  0  0
    5.0713   -1.0416   -0.8833 O   0  0  0  0  0  0  0  0  0  0  0  0
    2.4452    1.5091   -0.4265 C   0  0  0  0  0  0  0  0  0  0  0  0
    2.7840    2.8364   -1.0514 C   0  0  0  0  0  0  0  0  0  0  0  0
    1.2285    1.2815    0.2319 C   0  0  0  0  0  0  0  0  0  0  0  0
    0.8693    0.0447    0.7916 C   0  0  0  0  0  0  0  0  0  0  0  0
    1.7709   -1.0250    0.6984 C   0  0  0  0  0  0  0  0  0  0  0  0
    1.5080   -2.2541    1.1952 O   0  0  0  0  0  0  0  0  0  0  0  0
   -0.4926   -0.1520    1.4277 C   0  0  0  0  0  0  0  0  0  0  0  0
   -1.4436   -0.8987    0.5209 C   0  0  0  0  0  0  0  0  0  0  0  0
   -2.5263   -0.3956   -0.0778 C   0  0  0  0  0  0  0  0  0  0  0  0
   -3.3877   -1.2947   -0.9376 C   0  0  0  0  0  0  0  0  0  0  0  0
   -4.7873   -1.5616   -0.3488 C   0  0  0  0  0  0  0  0  0  0  0  0
   -5.7041   -0.3513   -0.2993 C   0  0  0  0  0  0  0  0  0  0  0  0
   -6.1926    0.0936    0.7040 O   0  0  0  0  0  0  0  0  0  0  0  0
   -5.9662    0.2323   -1.4953 O   0  0  0  0  0  0  0  0  0  0  0  0
   -2.9718    1.0423    0.0508 C   0  0  0  0  0  0  0  0  0  0  0  0
    0.3151    2.3111    0.3072 O   0  0  0  0  0  0  0  0  0  0  0  0
    0.5635    3.2163    1.3742 C   0  0  0  0  0  0  0  0  0  0  0  0
    4.6450    0.4856   -2.1965 H   0  0  0  0  0  0  0  0  0  0  0  0
    5.3985    0.9789   -0.6627 H   0  0  0  0  0  0  0  0  0  0  0  0
    1.8749    3.4065   -1.2591 H   0  0  0  0  0  0  0  0  0  0  0  0
    3.3206    2.6976   -1.9965 H   0  0  0  0  0  0  0  0  0  0  0  0
    3.4247    3.4448   -0.4003 H   0  0  0  0  0  0  0  0  0  0  0  0
    0.6624   -2.2401    1.6615 H   0  0  0  0  0  0  0  0  0  0  0  0
   -0.3878   -0.6982    2.3787 H   0  0  0  0  0  0  0  0  0  0  0  0
   -0.9114    0.8180    1.6971 H   0  0  0  0  0  0  0  0  0  0  0  0
   -1.1955   -1.9454    0.3320 H   0  0  0  0  0  0  0  0  0  0  0  0
   -2.8905   -2.2612   -1.0726 H   0  0  0  0  0  0  0  0  0  0  0  0
   -3.4788   -0.8557   -1.9434 H   0  0  0  0  0  0  0  0  0  0  0  0
   -4.6977   -1.9351    0.6738 H   0  0  0  0  0  0  0  0  0  0  0  0
   -5.2863   -2.3381   -0.9446 H   0  0  0  0  0  0  0  0  0  0  0  0
   -5.5234   -0.2518   -2.2061 H   0  0  0  0  0  0  0  0  0  0  0  0
   -3.6961    1.1657    0.8650 H   0  0  0  0  0  0  0  0  0  0  0  0
   -2.1268    1.7136    0.2254 H   0  0  0  0  0  0  0  0  0  0  0  0
   -3.4722    1.3741   -0.8660 H   0  0  0  0  0  0  0  0  0  0  0  0
    0.5193    2.7031    2.3440 H   0  0  0  0  0  0  0  0  0  0  0  0
    1.5447    3.6961    1.2707 H   0  0  0  0  0  0  0  0  0  0  0  0
   -0.2191    3.9760    1.3271 H   0  0  0  0  0  0  0  0  0  0  0  0
  1  3  1  0  0  0  0
  1  2  2  0  0  0  0
  3 11  2  0  0  0  0
  4  7  2  0  0  0  0
  4  3  1  0  0  0  0
  5  6  1  0  0  0  0
  5 25  1  0  0  0  0
  5  4  1  0  0  0  0
  6  1  1  0  0  0  0
  7  9  1  0  0  0  0
  8  7  1  0  0  0  0
  8 28  1  0  0  0  0
  9 22  1  0  0  0  0
  9 10  2  0  0  0  0
 10 13  1  0  0  0  0
 11 10  1  0  0  0  0
 11 12  1  0  0  0  0
 12 29  1  0  0  0  0
 13 31  1  0  0  0  0
 13 30  1  0  0  0  0
 14 13  1  0  0  0  0
 15 21  1  0  0  0  0
 15 14  2  0  0  0  0
 16 17  1  0  0  0  0
 16 15  1  0  0  0  0
 17 18  1  0  0  0  0
 17 35  1  0  0  0  0
 18 19  2  0  0  0  0
 20 18  1  0  0  0  0
 21 39  1  0  0  0  0
 21 38  1  0  0  0  0
 22 23  1  0  0  0  0
 23 41  1  0  0  0  0
 24  5  1  0  0  0  0
 26  8  1  0  0  0  0
 27  8  1  0  0  0  0
 32 14  1  0  0  0  0
 33 16  1  0  0  0  0
 34 16  1  0  0  0  0
 36 17  1  0  0  0  0
 37 20  1  0  0  0  0
 40 21  1  0  0  0  0
 42 23  1  0  0  0  0
 43 23  1  0  0  0  0
M  END
