astex_1n2j_10.log
 OpenBabel09261812563D

 22 21  0  0  1  0  0  0  0  0999 V2000
   -2.2667    1.3113   -0.5074 O   0  0  0  0  0  0  0  0  0  0  0  0
   -1.8273    0.2355   -0.1882 C   0  0  0  0  0  0  0  0  0  0  0  0
   -2.4491   -0.5666    0.7060 O   0  0  0  0  0  0  0  0  0  0  0  0
   -0.5272   -0.3799   -0.6863 C   0  0  2  0  0  0  0  0  0  0  0  0
   -0.5787   -1.7897   -0.6505 O   0  0  0  0  0  0  0  0  0  0  0  0
    0.7018    0.1983    0.0688 C   0  0  0  0  0  0  0  0  0  0  0  0
    0.7948    1.7141   -0.1358 C   0  0  0  0  0  0  0  0  0  0  0  0
    0.6338   -0.1355    1.5627 C   0  0  0  0  0  0  0  0  0  0  0  0
    1.9377   -0.4716   -0.5468 C   0  0  0  0  0  0  0  0  0  0  0  0
    3.0936    0.0354    0.0969 O   0  0  0  0  0  0  0  0  0  0  0  0
   -3.2543   -0.0989    0.9826 H   0  0  0  0  0  0  0  0  0  0  0  0
   -0.4438   -0.0980   -1.7422 H   0  0  0  0  0  0  0  0  0  0  0  0
   -1.0034   -2.0465    0.1794 H   0  0  0  0  0  0  0  0  0  0  0  0
    0.7895    1.9689   -1.2027 H   0  0  0  0  0  0  0  0  0  0  0  0
   -0.0417    2.2394    0.3338 H   0  0  0  0  0  0  0  0  0  0  0  0
    1.7291    2.0820    0.2964 H   0  0  0  0  0  0  0  0  0  0  0  0
    0.5261   -1.2148    1.7241 H   0  0  0  0  0  0  0  0  0  0  0  0
   -0.2069    0.3701    2.0515 H   0  0  0  0  0  0  0  0  0  0  0  0
    1.5579    0.1824    2.0521 H   0  0  0  0  0  0  0  0  0  0  0  0
    1.9629   -0.2531   -1.6281 H   0  0  0  0  0  0  0  0  0  0  0  0
    1.8561   -1.5596   -0.4249 H   0  0  0  0  0  0  0  0  0  0  0  0
    3.8535   -0.4602   -0.2278 H   0  0  0  0  0  0  0  0  0  0  0  0
  1  2  2  0  0  0  0
  2  3  1  0  0  0  0
  3 11  1  0  0  0  0
  4 12  1  6  0  0  0
  4  5  1  0  0  0  0
  4  2  1  0  0  0  0
  4  6  1  0  0  0  0
  5 13  1  0  0  0  0
  6  8  1  0  0  0  0
  7  6  1  0  0  0  0
  7 16  1  0  0  0  0
  7 15  1  0  0  0  0
  8 17  1  0  0  0  0
  8 18  1  0  0  0  0
  8 19  1  0  0  0  0
  9 21  1  0  0  0  0
  9  6  1  0  0  0  0
  9 10  1  0  0  0  0
 14  7  1  0  0  0  0
 20  9  1  0  0  0  0
 22 10  1  0  0  0  0
M  END
