astex_1meh_27.log
 OpenBabel09261812563D

 43 44  0  0  0  0  0  0  0  0999 V2000
    2.1501    2.7453    0.5720 C   0  0  0  0  0  0  0  0  0  0  0  0
    1.4048    3.5354    1.0779 O   0  0  0  0  0  0  0  0  0  0  0  0
    1.9998    1.2936    0.3183 C   0  0  0  0  0  0  0  0  0  0  0  0
    3.1488    0.8280   -0.2955 C   0  0  0  0  0  0  0  0  0  0  0  0
    4.0821    1.9965   -0.4539 C   0  0  0  0  0  0  0  0  0  0  0  0
    3.3887    3.1092    0.1042 O   0  0  0  0  0  0  0  0  0  0  0  0
    3.3179   -0.4937   -0.6807 C   0  0  0  0  0  0  0  0  0  0  0  0
    4.5637   -0.9776   -1.3743 C   0  0  0  0  0  0  0  0  0  0  0  0
    2.2428   -1.3463   -0.3915 C   0  0  0  0  0  0  0  0  0  0  0  0
    1.0560   -0.9154    0.2250 C   0  0  0  0  0  0  0  0  0  0  0  0
    0.9290    0.4390    0.5772 C   0  0  0  0  0  0  0  0  0  0  0  0
   -0.1724    0.9372    1.1753 O   0  0  0  0  0  0  0  0  0  0  0  0
   -0.0611   -1.8956    0.5274 C   0  0  0  0  0  0  0  0  0  0  0  0
   -1.3809   -1.4930   -0.0856 C   0  0  0  0  0  0  0  0  0  0  0  0
   -2.5683   -1.3532    0.5198 C   0  0  0  0  0  0  0  0  0  0  0  0
   -3.7761   -0.9252   -0.2860 C   0  0  0  0  0  0  0  0  0  0  0  0
   -4.1277    0.5609   -0.0765 C   0  0  0  0  0  0  0  0  0  0  0  0
   -5.3463    0.9490   -0.8957 C   0  0  0  0  0  0  0  0  0  0  0  0
   -5.3051    1.5779   -1.9168 O   0  0  0  0  0  0  0  0  0  0  0  0
   -6.5324    0.4852   -0.4284 O   0  0  0  0  0  0  0  0  0  0  0  0
   -2.8289   -1.6002    1.9850 C   0  0  0  0  0  0  0  0  0  0  0  0
    2.3404   -2.6724   -0.7517 O   0  0  0  0  0  0  0  0  0  0  0  0
    3.0253   -3.4704    0.2023 C   0  0  0  0  0  0  0  0  0  0  0  0
    5.0268    1.8622    0.0855 H   0  0  0  0  0  0  0  0  0  0  0  0
    4.3107    2.2132   -1.5043 H   0  0  0  0  0  0  0  0  0  0  0  0
    5.3791   -1.1664   -0.6642 H   0  0  0  0  0  0  0  0  0  0  0  0
    4.9254   -0.2337   -2.0930 H   0  0  0  0  0  0  0  0  0  0  0  0
    4.3668   -1.9054   -1.9170 H   0  0  0  0  0  0  0  0  0  0  0  0
   -0.9080    0.3175    1.0443 H   0  0  0  0  0  0  0  0  0  0  0  0
    0.2267   -2.8690    0.1177 H   0  0  0  0  0  0  0  0  0  0  0  0
   -0.1565   -2.0236    1.6126 H   0  0  0  0  0  0  0  0  0  0  0  0
   -1.3339   -1.2970   -1.1584 H   0  0  0  0  0  0  0  0  0  0  0  0
   -3.5940   -1.0899   -1.3535 H   0  0  0  0  0  0  0  0  0  0  0  0
   -4.6366   -1.5529   -0.0125 H   0  0  0  0  0  0  0  0  0  0  0  0
   -4.3094    0.7716    0.9861 H   0  0  0  0  0  0  0  0  0  0  0  0
   -3.2976    1.1906   -0.4055 H   0  0  0  0  0  0  0  0  0  0  0  0
   -6.4045    0.0311    0.4154 H   0  0  0  0  0  0  0  0  0  0  0  0
   -3.4424   -2.5013    2.1100 H   0  0  0  0  0  0  0  0  0  0  0  0
   -3.3870   -0.7696    2.4341 H   0  0  0  0  0  0  0  0  0  0  0  0
   -1.9168   -1.7373    2.5702 H   0  0  0  0  0  0  0  0  0  0  0  0
    2.4951   -3.4775    1.1641 H   0  0  0  0  0  0  0  0  0  0  0  0
    4.0490   -3.1095    0.3645 H   0  0  0  0  0  0  0  0  0  0  0  0
    3.0580   -4.4832   -0.2041 H   0  0  0  0  0  0  0  0  0  0  0  0
  1  2  2  0  0  0  0
  3  1  1  0  0  0  0
  3 11  1  0  0  0  0
  4  3  2  0  0  0  0
  5  4  1  0  0  0  0
  5 24  1  0  0  0  0
  5  6  1  0  0  0  0
  6  1  1  0  0  0  0
  7  9  2  0  0  0  0
  7  4  1  0  0  0  0
  8  7  1  0  0  0  0
  8 26  1  0  0  0  0
  9 10  1  0  0  0  0
 10 13  1  0  0  0  0
 10 11  2  0  0  0  0
 11 12  1  0  0  0  0
 13 31  1  0  0  0  0
 14 15  2  0  0  0  0
 14 13  1  0  0  0  0
 15 21  1  0  0  0  0
 16 17  1  0  0  0  0
 16 34  1  0  0  0  0
 16 15  1  0  0  0  0
 17 35  1  0  0  0  0
 18 20  1  0  0  0  0
 18 17  1  0  0  0  0
 19 18  2  0  0  0  0
 20 37  1  0  0  0  0
 21 38  1  0  0  0  0
 21 39  1  0  0  0  0
 21 40  1  0  0  0  0
 22  9  1  0  0  0  0
 22 23  1  0  0  0  0
 23 42  1  0  0  0  0
 23 41  1  0  0  0  0
 25  5  1  0  0  0  0
 27  8  1  0  0  0  0
 28  8  1  0  0  0  0
 29 12  1  0  0  0  0
 30 13  1  0  0  0  0
 32 14  1  0  0  0  0
 33 16  1  0  0  0  0
 36 17  1  0  0  0  0
 43 23  1  0  0  0  0
M  END
