astex_1n2j_15.log
 OpenBabel09261812563D

 22 21  0  0  1  0  0  0  0  0999 V2000
    1.3942   -1.8484   -0.4138 O   0  0  0  0  0  0  0  0  0  0  0  0
    1.6043   -0.6857   -0.1745 C   0  0  0  0  0  0  0  0  0  0  0  0
    2.6662   -0.2850    0.5283 O   0  0  0  0  0  0  0  0  0  0  0  0
    0.6608    0.4335   -0.6272 C   0  0  2  0  0  0  0  0  0  0  0  0
    1.3236    1.6546   -0.3240 O   0  0  0  0  0  0  0  0  0  0  0  0
   -0.7320    0.3354    0.0440 C   0  0  0  0  0  0  0  0  0  0  0  0
   -1.5249    1.6121   -0.2667 C   0  0  0  0  0  0  0  0  0  0  0  0
   -0.5861    0.1756    1.5606 C   0  0  0  0  0  0  0  0  0  0  0  0
   -1.5002   -0.8620   -0.5525 C   0  0  0  0  0  0  0  0  0  0  0  0
   -2.8008   -0.9830   -0.0023 O   0  0  0  0  0  0  0  0  0  0  0  0
    2.6491    0.6893    0.5584 H   0  0  0  0  0  0  0  0  0  0  0  0
    0.5422    0.3260   -1.7161 H   0  0  0  0  0  0  0  0  0  0  0  0
    0.7831    2.3935   -0.6276 H   0  0  0  0  0  0  0  0  0  0  0  0
   -2.5686    1.4629    0.0227 H   0  0  0  0  0  0  0  0  0  0  0  0
   -1.1463    2.4786    0.2888 H   0  0  0  0  0  0  0  0  0  0  0  0
   -1.5109    1.8433   -1.3409 H   0  0  0  0  0  0  0  0  0  0  0  0
   -0.1304   -0.7875    1.8221 H   0  0  0  0  0  0  0  0  0  0  0  0
   -1.5666    0.2346    2.0446 H   0  0  0  0  0  0  0  0  0  0  0  0
    0.0391    0.9724    1.9779 H   0  0  0  0  0  0  0  0  0  0  0  0
   -1.6378   -0.7023   -1.6294 H   0  0  0  0  0  0  0  0  0  0  0  0
   -0.9233   -1.7844   -0.4261 H   0  0  0  0  0  0  0  0  0  0  0  0
   -2.7265   -1.4842    0.8181 H   0  0  0  0  0  0  0  0  0  0  0  0
  1  2  2  0  0  0  0
  2  3  1  0  0  0  0
  3 11  1  0  0  0  0
  4 12  1  6  0  0  0
  4  5  1  0  0  0  0
  4  2  1  0  0  0  0
  4  6  1  0  0  0  0
  6  8  1  0  0  0  0
  7 14  1  0  0  0  0
  7  6  1  0  0  0  0
  7 15  1  0  0  0  0
  8 17  1  0  0  0  0
  8 19  1  0  0  0  0
  8 18  1  0  0  0  0
  9 21  1  0  0  0  0
  9 10  1  0  0  0  0
  9  6  1  0  0  0  0
 10 22  1  0  0  0  0
 13  5  1  0  0  0  0
 16  7  1  0  0  0  0
 20  9  1  0  0  0  0
M  END
