astex_1n2j_05.log
 OpenBabel09261812563D

 22 21  0  0  1  0  0  0  0  0999 V2000
    1.8627   -0.9842   -0.5022 O   0  0  0  0  0  0  0  0  0  0  0  0
    1.5529    0.0443    0.0655 C   0  0  0  0  0  0  0  0  0  0  0  0
    2.3382    1.1294    0.0400 O   0  0  0  0  0  0  0  0  0  0  0  0
    0.2591    0.2569    0.8522 C   0  0  2  0  0  0  0  0  0  0  0  0
    0.0622   -0.8251    1.7241 O   0  0  0  0  0  0  0  0  0  0  0  0
   -0.9445    0.4978   -0.1013 C   0  0  0  0  0  0  0  0  0  0  0  0
   -2.2235    0.4902    0.7433 C   0  0  0  0  0  0  0  0  0  0  0  0
   -0.7947    1.8520   -0.8017 C   0  0  0  0  0  0  0  0  0  0  0  0
   -1.0206   -0.6082   -1.1762 C   0  0  0  0  0  0  0  0  0  0  0  0
   -0.7718   -1.9136   -0.6667 O   0  0  0  0  0  0  0  0  0  0  0  0
    3.1197    0.8943   -0.4897 H   0  0  0  0  0  0  0  0  0  0  0  0
    0.3952    1.1480    1.4748 H   0  0  0  0  0  0  0  0  0  0  0  0
   -0.3215   -1.5367    1.1815 H   0  0  0  0  0  0  0  0  0  0  0  0
   -3.0818    0.7708    0.1215 H   0  0  0  0  0  0  0  0  0  0  0  0
   -2.4169   -0.4971    1.1704 H   0  0  0  0  0  0  0  0  0  0  0  0
   -2.1535    1.2056    1.5706 H   0  0  0  0  0  0  0  0  0  0  0  0
    0.1573    1.9367   -1.3389 H   0  0  0  0  0  0  0  0  0  0  0  0
   -0.8447    2.6731   -0.0777 H   0  0  0  0  0  0  0  0  0  0  0  0
   -1.6030    1.9981   -1.5280 H   0  0  0  0  0  0  0  0  0  0  0  0
   -2.0278   -0.6141   -1.6087 H   0  0  0  0  0  0  0  0  0  0  0  0
   -0.3160   -0.3899   -1.9905 H   0  0  0  0  0  0  0  0  0  0  0  0
    0.1908   -2.0391   -0.7379 H   0  0  0  0  0  0  0  0  0  0  0  0
  1  2  2  0  0  0  0
  2  4  1  0  0  0  0
  3  2  1  0  0  0  0
  4 12  1  1  0  0  0
  4  5  1  0  0  0  0
  6  7  1  0  0  0  0
  6  4  1  0  0  0  0
  7 15  1  0  0  0  0
  7 16  1  0  0  0  0
  8  6  1  0  0  0  0
  8 18  1  0  0  0  0
  9 10  1  0  0  0  0
  9  6  1  0  0  0  0
 11  3  1  0  0  0  0
 13  5  1  0  0  0  0
 14  7  1  0  0  0  0
 17  8  1  0  0  0  0
 19  8  1  0  0  0  0
 20  9  1  0  0  0  0
 21  9  1  0  0  0  0
 22 10  1  0  0  0  0
M  END
