astex_1n2j_01.log
 OpenBabel09261812563D

 22 21  0  0  1  0  0  0  0  0999 V2000
   -1.4496    1.7093   -0.0092 O   0  0  0  0  0  0  0  0  0  0  0  0
   -1.4765    0.4995   -0.0462 C   0  0  0  0  0  0  0  0  0  0  0  0
   -2.4844   -0.2054    0.4640 O   0  0  0  0  0  0  0  0  0  0  0  0
   -0.3550   -0.3437   -0.6636 C   0  0  2  0  0  0  0  0  0  0  0  0
   -0.8297   -1.6774   -0.8569 O   0  0  0  0  0  0  0  0  0  0  0  0
    0.9187   -0.3804    0.2136 C   0  0  0  0  0  0  0  0  0  0  0  0
    2.0248   -1.0528   -0.6053 C   0  0  0  0  0  0  0  0  0  0  0  0
    0.6550   -1.1587    1.5054 C   0  0  0  0  0  0  0  0  0  0  0  0
    1.3481    1.0583    0.5690 C   0  0  0  0  0  0  0  0  0  0  0  0
    1.3374    1.9296   -0.5406 O   0  0  0  0  0  0  0  0  0  0  0  0
   -2.2850   -1.1422    0.2642 H   0  0  0  0  0  0  0  0  0  0  0  0
   -0.0936    0.1235   -1.6190 H   0  0  0  0  0  0  0  0  0  0  0  0
   -1.1318   -1.7694   -1.7685 H   0  0  0  0  0  0  0  0  0  0  0  0
    1.7016   -2.0297   -0.9790 H   0  0  0  0  0  0  0  0  0  0  0  0
    2.9164   -1.2035    0.0139 H   0  0  0  0  0  0  0  0  0  0  0  0
    2.3067   -0.4195   -1.4541 H   0  0  0  0  0  0  0  0  0  0  0  0
   -0.1771   -0.7291    2.0776 H   0  0  0  0  0  0  0  0  0  0  0  0
    0.4224   -2.2068    1.2929 H   0  0  0  0  0  0  0  0  0  0  0  0
    1.5440   -1.1346    2.1463 H   0  0  0  0  0  0  0  0  0  0  0  0
    2.3762    1.0205    0.9491 H   0  0  0  0  0  0  0  0  0  0  0  0
    0.7142    1.4487    1.3770 H   0  0  0  0  0  0  0  0  0  0  0  0
    0.4253    2.2594   -0.5957 H   0  0  0  0  0  0  0  0  0  0  0  0
  2  1  2  0  0  0  0
  2  3  1  0  0  0  0
  4 12  1  6  0  0  0
  4  2  1  0  0  0  0
  4  6  1  0  0  0  0
  5  4  1  0  0  0  0
  6  9  1  0  0  0  0
  6  8  1  0  0  0  0
  7 15  1  0  0  0  0
  7  6  1  0  0  0  0
  8 17  1  0  0  0  0
  8 19  1  0  0  0  0
  9 20  1  0  0  0  0
  9 21  1  0  0  0  0
 10  9  1  0  0  0  0
 11  3  1  0  0  0  0
 13  5  1  0  0  0  0
 14  7  1  0  0  0  0
 16  7  1  0  0  0  0
 18  8  1  0  0  0  0
 22 10  1  0  0  0  0
M  END
