astex_1n2j_09.log
 OpenBabel09261812563D

 22 21  0  0  1  0  0  0  0  0999 V2000
   -2.2132   -1.1143    0.6348 O   0  0  0  0  0  0  0  0  0  0  0  0
   -1.7637   -0.2522   -0.0787 C   0  0  0  0  0  0  0  0  0  0  0  0
   -2.4929    0.8232   -0.4063 O   0  0  0  0  0  0  0  0  0  0  0  0
   -0.3381   -0.3500   -0.6267 C   0  0  2  0  0  0  0  0  0  0  0  0
    0.0479   -1.7027   -0.5376 O   0  0  0  0  0  0  0  0  0  0  0  0
    0.6607    0.5875    0.1103 C   0  0  0  0  0  0  0  0  0  0  0  0
    0.3196    2.0564   -0.1683 C   0  0  0  0  0  0  0  0  0  0  0  0
    0.6515    0.3135    1.6152 C   0  0  0  0  0  0  0  0  0  0  0  0
    2.0720    0.3167   -0.4608 C   0  0  0  0  0  0  0  0  0  0  0  0
    2.6329   -0.9117   -0.0792 O   0  0  0  0  0  0  0  0  0  0  0  0
   -1.9923    1.3963   -1.0052 H   0  0  0  0  0  0  0  0  0  0  0  0
   -0.3455   -0.0761   -1.6937 H   0  0  0  0  0  0  0  0  0  0  0  0
   -0.5555   -2.1085    0.1113 H   0  0  0  0  0  0  0  0  0  0  0  0
   -0.6167    2.3604    0.3127 H   0  0  0  0  0  0  0  0  0  0  0  0
    1.1041    2.7059    0.2342 H   0  0  0  0  0  0  0  0  0  0  0  0
    0.2536    2.2645   -1.2463 H   0  0  0  0  0  0  0  0  0  0  0  0
    1.3975    0.9415    2.1144 H   0  0  0  0  0  0  0  0  0  0  0  0
   -0.3258    0.5282    2.0629 H   0  0  0  0  0  0  0  0  0  0  0  0
    0.9105   -0.7275    1.8221 H   0  0  0  0  0  0  0  0  0  0  0  0
    2.0345    0.4237   -1.5609 H   0  0  0  0  0  0  0  0  0  0  0  0
    2.7502    1.0929   -0.0861 H   0  0  0  0  0  0  0  0  0  0  0  0
    1.9759   -1.5896   -0.3039 H   0  0  0  0  0  0  0  0  0  0  0  0
  2  1  2  0  0  0  0
  3  2  1  0  0  0  0
  4 12  1  6  0  0  0
  4  5  1  0  0  0  0
  4  2  1  0  0  0  0
  4  6  1  0  0  0  0
  5 13  1  0  0  0  0
  6  8  1  0  0  0  0
  7  6  1  0  0  0  0
  7 15  1  0  0  0  0
  7 14  1  0  0  0  0
  8 19  1  0  0  0  0
  8 18  1  0  0  0  0
  8 17  1  0  0  0  0
  9 21  1  0  0  0  0
  9 10  1  0  0  0  0
  9  6  1  0  0  0  0
 11  3  1  0  0  0  0
 16  7  1  0  0  0  0
 20  9  1  0  0  0  0
 22 10  1  0  0  0  0
M  END
