astex_1of1_09.log
 OpenBabel09261812563D

 34 36  0  0  1  0  0  0  0  0999 V2000
   -3.0987    1.8061   -1.1338 O   0  0  0  0  0  0  0  0  0  0  0  0
   -3.7754    0.5639   -1.0960 C   0  0  0  0  0  0  0  0  0  0  0  0
   -2.8571   -0.4663   -0.4628 C   0  0  2  0  0  0  0  0  0  0  0  0
   -2.5533   -0.1846    1.0148 C   0  0  1  0  0  0  0  0  0  0  0  0
   -3.6621   -0.5794    1.8011 O   0  0  0  0  0  0  0  0  0  0  0  0
   -1.2539   -0.9609    1.3019 C   0  0  0  0  0  0  0  0  0  0  0  0
   -0.4850   -0.8842   -0.0178 C   0  0  2  0  0  0  0  0  0  0  0  0
    0.8365   -0.3009   -0.0135 N   0  0  0  0  0  0  0  0  0  0  0  0
    0.9407    1.0554    0.2724 C   0  0  0  0  0  0  0  0  0  0  0  0
   -0.0152    1.7659    0.5101 O   0  0  0  0  0  0  0  0  0  0  0  0
    2.2397    1.5310    0.2680 N   0  0  0  0  0  0  0  0  0  0  0  0
    3.4252    0.8137    0.0945 C   0  0  0  0  0  0  0  0  0  0  0  0
    4.5044    1.3741    0.1363 O   0  0  0  0  0  0  0  0  0  0  0  0
    3.2246   -0.6210   -0.1202 C   0  0  0  0  0  0  0  0  0  0  0  0
    1.9644   -1.0892   -0.1544 C   0  0  0  0  0  0  0  0  0  0  0  0
    4.4446   -1.4759   -0.2838 C   0  0  0  0  0  0  0  0  0  0  0  0
   -1.4786   -0.5643   -1.1072 C   0  0  1  0  0  0  0  0  0  0  0  0
   -0.7928   -1.8993   -1.0815 C   0  0  0  0  0  0  0  0  0  0  0  0
   -3.7130    2.4743   -1.4580 H   0  0  0  0  0  0  0  0  0  0  0  0
   -4.6939    0.6210   -0.4921 H   0  0  0  0  0  0  0  0  0  0  0  0
   -4.0550    0.2357   -2.1100 H   0  0  0  0  0  0  0  0  0  0  0  0
   -3.3742   -1.4361   -0.5115 H   0  0  0  0  0  0  0  0  0  0  0  0
   -2.3503    0.8889    1.1179 H   0  0  0  0  0  0  0  0  0  0  0  0
   -3.5980   -0.1318    2.6525 H   0  0  0  0  0  0  0  0  0  0  0  0
   -0.6780   -0.5204    2.1213 H   0  0  0  0  0  0  0  0  0  0  0  0
   -1.4985   -1.9957    1.5732 H   0  0  0  0  0  0  0  0  0  0  0  0
    2.3355    2.5209    0.4562 H   0  0  0  0  0  0  0  0  0  0  0  0
    1.7519   -2.1432   -0.3055 H   0  0  0  0  0  0  0  0  0  0  0  0
    5.0871   -1.4083    0.6002 H   0  0  0  0  0  0  0  0  0  0  0  0
    5.0429   -1.1369   -1.1358 H   0  0  0  0  0  0  0  0  0  0  0  0
    4.1749   -2.5247   -0.4405 H   0  0  0  0  0  0  0  0  0  0  0  0
   -1.2133    0.1480   -1.8824 H   0  0  0  0  0  0  0  0  0  0  0  0
   -0.0361   -2.0790   -1.8416 H   0  0  0  0  0  0  0  0  0  0  0  0
   -1.3620   -2.7811   -0.7930 H   0  0  0  0  0  0  0  0  0  0  0  0
  1  2  1  0  0  0  0
  2 20  1  0  0  0  0
  2  3  1  0  0  0  0
  3 17  1  6  0  0  0
  4  3  1  6  0  0  0
  4 23  1  0  0  0  0
  4  6  1  0  0  0  0
  4  5  1  0  0  0  0
  5 24  1  0  0  0  0
  6 26  1  0  0  0  0
  6 25  1  0  0  0  0
  7 17  1  6  0  0  0
  7  8  1  0  0  0  0
  7  6  1  0  0  0  0
  8  9  1  0  0  0  0
  9 10  2  0  0  0  0
 11  9  1  0  0  0  0
 11 27  1  0  0  0  0
 12 13  2  0  0  0  0
 12 11  1  0  0  0  0
 14 12  1  0  0  0  0
 15 14  2  0  0  0  0
 15  8  1  0  0  0  0
 16 14  1  0  0  0  0
 16 29  1  0  0  0  0
 17 32  1  6  0  0  0
 17 18  1  0  0  0  0
 18 34  1  0  0  0  0
 18  7  1  0  0  0  0
 19  1  1  0  0  0  0
 21  2  1  0  0  0  0
 22  3  1  0  0  0  0
 28 15  1  0  0  0  0
 30 16  1  0  0  0  0
 31 16  1  0  0  0  0
 33 18  1  0  0  0  0
M  END
