astex_1meh_14.log
 OpenBabel09261812563D

 43 44  0  0  0  0  0  0  0  0999 V2000
    1.3492    2.7453   -0.0136 C   0  0  0  0  0  0  0  0  0  0  0  0
    0.3802    3.4549   -0.0176 O   0  0  0  0  0  0  0  0  0  0  0  0
    1.4660    1.2836   -0.1884 C   0  0  0  0  0  0  0  0  0  0  0  0
    2.7867    0.9116   -0.0230 C   0  0  0  0  0  0  0  0  0  0  0  0
    3.5761    2.1717    0.2106 C   0  0  0  0  0  0  0  0  0  0  0  0
    2.6121    3.2262    0.2042 O   0  0  0  0  0  0  0  0  0  0  0  0
    3.2004   -0.4117   -0.0731 C   0  0  0  0  0  0  0  0  0  0  0  0
    4.6441   -0.8114    0.0808 C   0  0  0  0  0  0  0  0  0  0  0  0
    2.1829   -1.3574   -0.2817 C   0  0  0  0  0  0  0  0  0  0  0  0
    0.8316   -1.0196   -0.4733 C   0  0  0  0  0  0  0  0  0  0  0  0
    0.4787    0.3389   -0.4415 C   0  0  0  0  0  0  0  0  0  0  0  0
   -0.7845    0.7777   -0.6519 O   0  0  0  0  0  0  0  0  0  0  0  0
   -0.2325   -2.0860   -0.6812 C   0  0  0  0  0  0  0  0  0  0  0  0
   -1.3680   -1.8790    0.2959 C   0  0  0  0  0  0  0  0  0  0  0  0
   -2.6732   -1.6971    0.0487 C   0  0  0  0  0  0  0  0  0  0  0  0
   -3.5633   -1.2076    1.1796 C   0  0  0  0  0  0  0  0  0  0  0  0
   -3.4112    0.3110    1.3929 C   0  0  0  0  0  0  0  0  0  0  0  0
   -3.9938    1.1021    0.2256 C   0  0  0  0  0  0  0  0  0  0  0  0
   -5.1076    0.8856   -0.1865 O   0  0  0  0  0  0  0  0  0  0  0  0
   -3.2404    2.0594   -0.3324 O   0  0  0  0  0  0  0  0  0  0  0  0
   -3.3376   -1.8593   -1.2950 C   0  0  0  0  0  0  0  0  0  0  0  0
    2.5242   -2.6893   -0.3366 O   0  0  0  0  0  0  0  0  0  0  0  0
    2.6344   -3.3002    0.9410 C   0  0  0  0  0  0  0  0  0  0  0  0
    4.0926    2.1784    1.1769 H   0  0  0  0  0  0  0  0  0  0  0  0
    4.3119    2.3638   -0.5789 H   0  0  0  0  0  0  0  0  0  0  0  0
    5.3043   -0.0892   -0.4120 H   0  0  0  0  0  0  0  0  0  0  0  0
    4.9448   -0.8603    1.1352 H   0  0  0  0  0  0  0  0  0  0  0  0
    4.8210   -1.7926   -0.3666 H   0  0  0  0  0  0  0  0  0  0  0  0
   -1.3801    0.0103   -0.6796 H   0  0  0  0  0  0  0  0  0  0  0  0
   -0.5930   -2.0562   -1.7170 H   0  0  0  0  0  0  0  0  0  0  0  0
    0.2301   -3.0686   -0.5499 H   0  0  0  0  0  0  0  0  0  0  0  0
   -1.0370   -1.7454    1.3294 H   0  0  0  0  0  0  0  0  0  0  0  0
   -3.3016   -1.7184    2.1128 H   0  0  0  0  0  0  0  0  0  0  0  0
   -4.6161   -1.4187    0.9661 H   0  0  0  0  0  0  0  0  0  0  0  0
   -3.9821    0.6121    2.2791 H   0  0  0  0  0  0  0  0  0  0  0  0
   -2.3617    0.5662    1.5763 H   0  0  0  0  0  0  0  0  0  0  0  0
   -2.3175    2.0508   -0.0230 H   0  0  0  0  0  0  0  0  0  0  0  0
   -4.0420   -2.6989   -1.2484 H   0  0  0  0  0  0  0  0  0  0  0  0
   -3.9308   -0.9750   -1.5541 H   0  0  0  0  0  0  0  0  0  0  0  0
   -2.6325   -2.0651   -2.1047 H   0  0  0  0  0  0  0  0  0  0  0  0
    1.6793   -3.2548    1.4818 H   0  0  0  0  0  0  0  0  0  0  0  0
    2.9040   -4.3434    0.7657 H   0  0  0  0  0  0  0  0  0  0  0  0
    3.4106   -2.8196    1.5500 H   0  0  0  0  0  0  0  0  0  0  0  0
  1  6  1  0  0  0  0
  2  1  2  0  0  0  0
  3  4  2  0  0  0  0
  3  1  1  0  0  0  0
  4  5  1  0  0  0  0
  5 24  1  0  0  0  0
  6  5  1  0  0  0  0
  7  4  1  0  0  0  0
  7  8  1  0  0  0  0
  8 27  1  0  0  0  0
  9  7  2  0  0  0  0
 10 11  2  0  0  0  0
 10  9  1  0  0  0  0
 11  3  1  0  0  0  0
 12 11  1  0  0  0  0
 13 31  1  0  0  0  0
 13 10  1  0  0  0  0
 13 14  1  0  0  0  0
 14 32  1  0  0  0  0
 15 14  2  0  0  0  0
 15 16  1  0  0  0  0
 16 17  1  0  0  0  0
 16 33  1  0  0  0  0
 17 36  1  0  0  0  0
 17 35  1  0  0  0  0
 18 17  1  0  0  0  0
 19 18  2  0  0  0  0
 20 37  1  0  0  0  0
 20 18  1  0  0  0  0
 21 38  1  0  0  0  0
 21 15  1  0  0  0  0
 22  9  1  0  0  0  0
 22 23  1  0  0  0  0
 23 41  1  0  0  0  0
 23 43  1  0  0  0  0
 25  5  1  0  0  0  0
 26  8  1  0  0  0  0
 28  8  1  0  0  0  0
 29 12  1  0  0  0  0
 30 13  1  0  0  0  0
 34 16  1  0  0  0  0
 39 21  1  0  0  0  0
 40 21  1  0  0  0  0
 42 23  1  0  0  0  0
M  END
