astex_1n2j_12.log
 OpenBabel09261812563D

 22 21  0  0  1  0  0  0  0  0999 V2000
   -2.2260    1.3768   -0.4541 O   0  0  0  0  0  0  0  0  0  0  0  0
   -1.8520    0.2749   -0.1469 C   0  0  0  0  0  0  0  0  0  0  0  0
   -2.5326   -0.5085    0.7006 O   0  0  0  0  0  0  0  0  0  0  0  0
   -0.5514   -0.3542   -0.6675 C   0  0  2  0  0  0  0  0  0  0  0  0
   -0.6014   -1.7718   -0.4709 O   0  0  0  0  0  0  0  0  0  0  0  0
    0.6935    0.2042    0.0573 C   0  0  0  0  0  0  0  0  0  0  0  0
    0.8379    1.7031   -0.2290 C   0  0  0  0  0  0  0  0  0  0  0  0
    0.5959   -0.0451    1.5672 C   0  0  0  0  0  0  0  0  0  0  0  0
    1.9147   -0.5366   -0.5069 C   0  0  0  0  0  0  0  0  0  0  0  0
    3.0801    0.0038    0.0876 O   0  0  0  0  0  0  0  0  0  0  0  0
   -2.0408   -1.3503    0.7512 H   0  0  0  0  0  0  0  0  0  0  0  0
   -0.4783   -0.1148   -1.7362 H   0  0  0  0  0  0  0  0  0  0  0  0
   -1.0498   -2.1683   -1.2284 H   0  0  0  0  0  0  0  0  0  0  0  0
    0.8980    1.8943   -1.3075 H   0  0  0  0  0  0  0  0  0  0  0  0
   -0.0095    2.2703    0.1632 H   0  0  0  0  0  0  0  0  0  0  0  0
    1.7589    2.0703    0.2306 H   0  0  0  0  0  0  0  0  0  0  0  0
   -0.2279    0.5225    2.0147 H   0  0  0  0  0  0  0  0  0  0  0  0
    0.4433   -1.1089    1.7833 H   0  0  0  0  0  0  0  0  0  0  0  0
    1.5268    0.2668    2.0477 H   0  0  0  0  0  0  0  0  0  0  0  0
    1.8210   -1.6096   -0.2941 H   0  0  0  0  0  0  0  0  0  0  0  0
    1.9380   -0.4071   -1.6034 H   0  0  0  0  0  0  0  0  0  0  0  0
    3.8279   -0.5460   -0.1713 H   0  0  0  0  0  0  0  0  0  0  0  0
  1  2  2  0  0  0  0
  2  3  1  0  0  0  0
  3 11  1  0  0  0  0
  4 12  1  6  0  0  0
  4  5  1  0  0  0  0
  4  2  1  0  0  0  0
  4  6  1  0  0  0  0
  6  8  1  0  0  0  0
  7  6  1  0  0  0  0
  7 15  1  0  0  0  0
  7 16  1  0  0  0  0
  8 18  1  0  0  0  0
  8 17  1  0  0  0  0
  8 19  1  0  0  0  0
  9 20  1  0  0  0  0
  9  6  1  0  0  0  0
  9 10  1  0  0  0  0
 13  5  1  0  0  0  0
 14  7  1  0  0  0  0
 21  9  1  0  0  0  0
 22 10  1  0  0  0  0
M  END
