astex_1meh_08.log
 OpenBabel09261812563D

 43 44  0  0  0  0  0  0  0  0999 V2000
   -3.9205   -1.4653    0.2973 C   0  0  0  0  0  0  0  0  0  0  0  0
   -4.0358   -2.6457    0.0483 O   0  0  0  0  0  0  0  0  0  0  0  0
   -2.7936   -0.5914   -0.0081 C   0  0  0  0  0  0  0  0  0  0  0  0
   -3.0565    0.6826    0.4564 C   0  0  0  0  0  0  0  0  0  0  0  0
   -4.4261    0.6320    1.0862 C   0  0  0  0  0  0  0  0  0  0  0  0
   -4.8651   -0.7305    0.9338 O   0  0  0  0  0  0  0  0  0  0  0  0
   -2.1358    1.7089    0.3182 C   0  0  0  0  0  0  0  0  0  0  0  0
   -2.3754    3.0962    0.8519 C   0  0  0  0  0  0  0  0  0  0  0  0
   -0.9355    1.3512   -0.3285 C   0  0  0  0  0  0  0  0  0  0  0  0
   -0.6409    0.0628   -0.8021 C   0  0  0  0  0  0  0  0  0  0  0  0
   -1.5987   -0.9408   -0.6257 C   0  0  0  0  0  0  0  0  0  0  0  0
   -1.3705   -2.2023   -1.0447 O   0  0  0  0  0  0  0  0  0  0  0  0
    0.6996   -0.2511   -1.4297 C   0  0  0  0  0  0  0  0  0  0  0  0
    1.7858   -0.3575   -0.3853 C   0  0  0  0  0  0  0  0  0  0  0  0
    2.3822   -1.4770    0.0455 C   0  0  0  0  0  0  0  0  0  0  0  0
    3.4537   -1.4802    1.1236 C   0  0  0  0  0  0  0  0  0  0  0  0
    4.0976   -0.1487    1.5214 C   0  0  0  0  0  0  0  0  0  0  0  0
    5.1031    0.4356    0.5342 C   0  0  0  0  0  0  0  0  0  0  0  0
    6.0883    1.0290    0.8881 O   0  0  0  0  0  0  0  0  0  0  0  0
    4.8408    0.2710   -0.7773 O   0  0  0  0  0  0  0  0  0  0  0  0
    2.0457   -2.8601   -0.4563 C   0  0  0  0  0  0  0  0  0  0  0  0
    0.0476    2.3035   -0.4716 O   0  0  0  0  0  0  0  0  0  0  0  0
   -0.1505    3.1767   -1.5759 C   0  0  0  0  0  0  0  0  0  0  0  0
   -4.4167    0.8678    2.1557 H   0  0  0  0  0  0  0  0  0  0  0  0
   -5.1544    1.2804    0.5886 H   0  0  0  0  0  0  0  0  0  0  0  0
   -2.9518    3.7127    0.1506 H   0  0  0  0  0  0  0  0  0  0  0  0
   -2.9381    3.0613    1.7913 H   0  0  0  0  0  0  0  0  0  0  0  0
   -1.4264    3.6031    1.0449 H   0  0  0  0  0  0  0  0  0  0  0  0
   -2.1628   -2.7338   -0.8268 H   0  0  0  0  0  0  0  0  0  0  0  0
    0.6130   -1.1720   -2.0100 H   0  0  0  0  0  0  0  0  0  0  0  0
    0.9691    0.5471   -2.1305 H   0  0  0  0  0  0  0  0  0  0  0  0
    2.0542    0.6005    0.0599 H   0  0  0  0  0  0  0  0  0  0  0  0
    4.2431   -2.1823    0.8190 H   0  0  0  0  0  0  0  0  0  0  0  0
    3.0073   -1.9284    2.0220 H   0  0  0  0  0  0  0  0  0  0  0  0
    3.3328    0.6129    1.7195 H   0  0  0  0  0  0  0  0  0  0  0  0
    4.6491   -0.2712    2.4564 H   0  0  0  0  0  0  0  0  0  0  0  0
    3.9837   -0.1743   -0.8961 H   0  0  0  0  0  0  0  0  0  0  0  0
    1.0726   -2.9102   -0.9492 H   0  0  0  0  0  0  0  0  0  0  0  0
    2.8138   -3.2197   -1.1529 H   0  0  0  0  0  0  0  0  0  0  0  0
    2.0276   -3.5655    0.3831 H   0  0  0  0  0  0  0  0  0  0  0  0
   -0.1722    2.6179   -2.5205 H   0  0  0  0  0  0  0  0  0  0  0  0
    0.6934    3.8687   -1.5803 H   0  0  0  0  0  0  0  0  0  0  0  0
   -1.0855    3.7420   -1.4759 H   0  0  0  0  0  0  0  0  0  0  0  0
  1  6  1  0  0  0  0
  2  1  2  0  0  0  0
  3  1  1  0  0  0  0
  3  4  2  0  0  0  0
  4  5  1  0  0  0  0
  5 24  1  0  0  0  0
  6  5  1  0  0  0  0
  7  4  1  0  0  0  0
  7  8  1  0  0  0  0
  8 28  1  0  0  0  0
  8 27  1  0  0  0  0
  9  7  2  0  0  0  0
 10 11  2  0  0  0  0
 10  9  1  0  0  0  0
 11  3  1  0  0  0  0
 12 29  1  0  0  0  0
 12 11  1  0  0  0  0
 13 10  1  0  0  0  0
 13 14  1  0  0  0  0
 14 15  2  0  0  0  0
 14 32  1  0  0  0  0
 15 16  1  0  0  0  0
 16 17  1  0  0  0  0
 16 34  1  0  0  0  0
 17 35  1  0  0  0  0
 17 36  1  0  0  0  0
 18 19  2  0  0  0  0
 18 17  1  0  0  0  0
 20 18  1  0  0  0  0
 21 15  1  0  0  0  0
 21 40  1  0  0  0  0
 22  9  1  0  0  0  0
 23 43  1  0  0  0  0
 23 22  1  0  0  0  0
 25  5  1  0  0  0  0
 26  8  1  0  0  0  0
 30 13  1  0  0  0  0
 31 13  1  0  0  0  0
 33 16  1  0  0  0  0
 37 20  1  0  0  0  0
 38 21  1  0  0  0  0
 39 21  1  0  0  0  0
 41 23  1  0  0  0  0
 42 23  1  0  0  0  0
M  END
