astex_1n2j_08.log
 OpenBabel09261812563D

 22 21  0  0  1  0  0  0  0  0999 V2000
   -2.4295    0.6771   -0.8740 O   0  0  0  0  0  0  0  0  0  0  0  0
   -1.7583   -0.1273   -0.2691 C   0  0  0  0  0  0  0  0  0  0  0  0
   -2.2336   -0.8260    0.7729 O   0  0  0  0  0  0  0  0  0  0  0  0
   -0.2979   -0.4141   -0.5845 C   0  0  2  0  0  0  0  0  0  0  0  0
   -0.0366   -1.7614   -0.2957 O   0  0  0  0  0  0  0  0  0  0  0  0
    0.6497    0.5726    0.1644 C   0  0  0  0  0  0  0  0  0  0  0  0
    0.6837    0.2588    1.6630 C   0  0  0  0  0  0  0  0  0  0  0  0
    0.2110    2.0231   -0.0721 C   0  0  0  0  0  0  0  0  0  0  0  0
    2.0562    0.4350   -0.4315 C   0  0  0  0  0  0  0  0  0  0  0  0
    2.5334   -0.8975   -0.2610 O   0  0  0  0  0  0  0  0  0  0  0  0
   -3.1603   -0.5485    0.8674 H   0  0  0  0  0  0  0  0  0  0  0  0
   -0.2036   -0.2046   -1.6634 H   0  0  0  0  0  0  0  0  0  0  0  0
    0.9279   -1.8661   -0.3506 H   0  0  0  0  0  0  0  0  0  0  0  0
    1.3680    0.9447    2.1765 H   0  0  0  0  0  0  0  0  0  0  0  0
    1.0173   -0.7652    1.8447 H   0  0  0  0  0  0  0  0  0  0  0  0
   -0.3104    0.3708    2.1073 H   0  0  0  0  0  0  0  0  0  0  0  0
   -0.7407    2.2370    0.4218 H   0  0  0  0  0  0  0  0  0  0  0  0
    0.9602    2.7149    0.3306 H   0  0  0  0  0  0  0  0  0  0  0  0
    0.0787    2.2384   -1.1386 H   0  0  0  0  0  0  0  0  0  0  0  0
    2.0259    0.6975   -1.5006 H   0  0  0  0  0  0  0  0  0  0  0  0
    2.7288    1.1435    0.0751 H   0  0  0  0  0  0  0  0  0  0  0  0
    3.3715   -0.9887   -0.7286 H   0  0  0  0  0  0  0  0  0  0  0  0
  1  2  2  0  0  0  0
  2  3  1  0  0  0  0
  3 11  1  0  0  0  0
  4 12  1  6  0  0  0
  4  5  1  0  0  0  0
  4  2  1  0  0  0  0
  4  6  1  0  0  0  0
  6  7  1  0  0  0  0
  7 15  1  0  0  0  0
  7 16  1  0  0  0  0
  7 14  1  0  0  0  0
  8  6  1  0  0  0  0
  8 18  1  0  0  0  0
  8 17  1  0  0  0  0
  9 10  1  0  0  0  0
  9 21  1  0  0  0  0
  9  6  1  0  0  0  0
 13  5  1  0  0  0  0
 19  8  1  0  0  0  0
 20  9  1  0  0  0  0
 22 10  1  0  0  0  0
M  END
