astex_1meh_15.log
 OpenBabel09261812563D

 43 44  0  0  0  0  0  0  0  0999 V2000
   -3.2595   -2.3746    0.0004 C   0  0  0  0  0  0  0  0  0  0  0  0
   -2.8623   -3.4597   -0.3644 O   0  0  0  0  0  0  0  0  0  0  0  0
   -2.5902   -1.0853   -0.1252 C   0  0  0  0  0  0  0  0  0  0  0  0
   -3.3811   -0.0975    0.4296 C   0  0  0  0  0  0  0  0  0  0  0  0
   -4.6293   -0.7812    0.9293 C   0  0  0  0  0  0  0  0  0  0  0  0
   -4.4507   -2.1750    0.6180 O   0  0  0  0  0  0  0  0  0  0  0  0
   -2.9694    1.2244    0.4650 C   0  0  0  0  0  0  0  0  0  0  0  0
   -3.7898    2.3178    1.0964 C   0  0  0  0  0  0  0  0  0  0  0  0
   -1.7034    1.4719   -0.1052 C   0  0  0  0  0  0  0  0  0  0  0  0
   -0.8786    0.4874   -0.6706 C   0  0  0  0  0  0  0  0  0  0  0  0
   -1.3359   -0.8352   -0.6685 C   0  0  0  0  0  0  0  0  0  0  0  0
   -0.5851   -1.8296   -1.1825 O   0  0  0  0  0  0  0  0  0  0  0  0
    0.4946    0.8234   -1.2090 C   0  0  0  0  0  0  0  0  0  0  0  0
    1.5110    0.9435   -0.1005 C   0  0  0  0  0  0  0  0  0  0  0  0
    2.5346    0.1207    0.1437 C   0  0  0  0  0  0  0  0  0  0  0  0
    3.4702    0.4245    1.2940 C   0  0  0  0  0  0  0  0  0  0  0  0
    4.8956    0.8135    0.8559 C   0  0  0  0  0  0  0  0  0  0  0  0
    5.7078   -0.2973    0.2115 C   0  0  0  0  0  0  0  0  0  0  0  0
    6.2196   -0.2251   -0.8731 O   0  0  0  0  0  0  0  0  0  0  0  0
    5.8568   -1.4213    0.9556 O   0  0  0  0  0  0  0  0  0  0  0  0
    2.8496   -1.1132   -0.6687 C   0  0  0  0  0  0  0  0  0  0  0  0
   -1.2077    2.7560   -0.0727 O   0  0  0  0  0  0  0  0  0  0  0  0
   -1.6965    3.5859   -1.1170 C   0  0  0  0  0  0  0  0  0  0  0  0
   -5.5398   -0.4361    0.4289 H   0  0  0  0  0  0  0  0  0  0  0  0
   -4.7666   -0.6893    2.0120 H   0  0  0  0  0  0  0  0  0  0  0  0
   -3.1470    3.1367    1.4296 H   0  0  0  0  0  0  0  0  0  0  0  0
   -4.5292    2.7313    0.3987 H   0  0  0  0  0  0  0  0  0  0  0  0
   -4.3393    1.9415    1.9664 H   0  0  0  0  0  0  0  0  0  0  0  0
   -1.0879   -2.6628   -1.0823 H   0  0  0  0  0  0  0  0  0  0  0  0
    0.4505    1.7784   -1.7449 H   0  0  0  0  0  0  0  0  0  0  0  0
    0.7901    0.0618   -1.9339 H   0  0  0  0  0  0  0  0  0  0  0  0
    1.3573    1.7996    0.5579 H   0  0  0  0  0  0  0  0  0  0  0  0
    3.0651    1.2530    1.8849 H   0  0  0  0  0  0  0  0  0  0  0  0
    3.5064   -0.4420    1.9739 H   0  0  0  0  0  0  0  0  0  0  0  0
    5.4577    1.1681    1.7310 H   0  0  0  0  0  0  0  0  0  0  0  0
    4.8542    1.6329    0.1348 H   0  0  0  0  0  0  0  0  0  0  0  0
    5.3986   -1.3217    1.8017 H   0  0  0  0  0  0  0  0  0  0  0  0
    1.9619   -1.5175   -1.1611 H   0  0  0  0  0  0  0  0  0  0  0  0
    3.6083   -0.9059   -1.4334 H   0  0  0  0  0  0  0  0  0  0  0  0
    3.2590   -1.9026   -0.0274 H   0  0  0  0  0  0  0  0  0  0  0  0
   -1.2055    4.5539   -1.0011 H   0  0  0  0  0  0  0  0  0  0  0  0
   -2.7836    3.7191   -1.0476 H   0  0  0  0  0  0  0  0  0  0  0  0
   -1.4519    3.1656   -2.1011 H   0  0  0  0  0  0  0  0  0  0  0  0
  1  6  1  0  0  0  0
  2  1  2  0  0  0  0
  3  1  1  0  0  0  0
  3  4  2  0  0  0  0
  4  7  1  0  0  0  0
  4  5  1  0  0  0  0
  5 25  1  0  0  0  0
  6  5  1  0  0  0  0
  7  8  1  0  0  0  0
  8 26  1  0  0  0  0
  8 28  1  0  0  0  0
  9 22  1  0  0  0  0
  9  7  2  0  0  0  0
 10 11  2  0  0  0  0
 10  9  1  0  0  0  0
 11  3  1  0  0  0  0
 12 29  1  0  0  0  0
 12 11  1  0  0  0  0
 13 10  1  0  0  0  0
 13 14  1  0  0  0  0
 14 15  2  0  0  0  0
 14 32  1  0  0  0  0
 15 16  1  0  0  0  0
 16 33  1  0  0  0  0
 16 34  1  0  0  0  0
 17 16  1  0  0  0  0
 17 35  1  0  0  0  0
 18 17  1  0  0  0  0
 18 20  1  0  0  0  0
 19 18  2  0  0  0  0
 20 37  1  0  0  0  0
 21 40  1  0  0  0  0
 21 15  1  0  0  0  0
 23 42  1  0  0  0  0
 23 41  1  0  0  0  0
 23 22  1  0  0  0  0
 24  5  1  0  0  0  0
 27  8  1  0  0  0  0
 30 13  1  0  0  0  0
 31 13  1  0  0  0  0
 36 17  1  0  0  0  0
 38 21  1  0  0  0  0
 39 21  1  0  0  0  0
 43 23  1  0  0  0  0
M  END
