astex_1meh_00.log
 OpenBabel09261812563D

 43 44  0  0  0  0  0  0  0  0999 V2000
    3.6811   -1.4509    0.4374 C   0  0  0  0  0  0  0  0  0  0  0  0
    3.8433   -2.6415    0.2788 O   0  0  0  0  0  0  0  0  0  0  0  0
    2.5912   -0.6190   -0.0563 C   0  0  0  0  0  0  0  0  0  0  0  0
    2.7892    0.6897    0.3418 C   0  0  0  0  0  0  0  0  0  0  0  0
    4.0688    0.7023    1.1405 C   0  0  0  0  0  0  0  0  0  0  0  0
    4.5343   -0.6599    1.1357 O   0  0  0  0  0  0  0  0  0  0  0  0
    1.9019    1.6933   -0.0063 C   0  0  0  0  0  0  0  0  0  0  0  0
    2.1027    3.1322    0.3894 C   0  0  0  0  0  0  0  0  0  0  0  0
    0.7967    1.2823   -0.7836 C   0  0  0  0  0  0  0  0  0  0  0  0
    0.5854   -0.0364   -1.2192 C   0  0  0  0  0  0  0  0  0  0  0  0
    1.5111   -1.0129   -0.8355 C   0  0  0  0  0  0  0  0  0  0  0  0
    1.3480   -2.2965   -1.2163 O   0  0  0  0  0  0  0  0  0  0  0  0
   -0.5984   -0.4154   -2.0802 C   0  0  0  0  0  0  0  0  0  0  0  0
   -1.7080   -1.0422   -1.2718 C   0  0  0  0  0  0  0  0  0  0  0  0
   -2.9732   -0.6291   -1.1549 C   0  0  0  0  0  0  0  0  0  0  0  0
   -3.9512   -1.4064   -0.2819 C   0  0  0  0  0  0  0  0  0  0  0  0
   -3.5012   -1.5714    1.1683 C   0  0  0  0  0  0  0  0  0  0  0  0
   -3.3967   -0.2594    1.9040 C   0  0  0  0  0  0  0  0  0  0  0  0
   -3.6565    0.8366    1.4607 O   0  0  0  0  0  0  0  0  0  0  0  0
   -2.9746   -0.4339    3.1714 O   0  0  0  0  0  0  0  0  0  0  0  0
   -3.5627    0.5731   -1.8425 C   0  0  0  0  0  0  0  0  0  0  0  0
   -0.1071    2.2365   -1.1802 O   0  0  0  0  0  0  0  0  0  0  0  0
   -1.1067    2.5191   -0.2041 C   0  0  0  0  0  0  0  0  0  0  0  0
    3.9243    1.0067    2.1822 H   0  0  0  0  0  0  0  0  0  0  0  0
    4.8487    1.3295    0.6956 H   0  0  0  0  0  0  0  0  0  0  0  0
    3.1672    3.3919    0.3956 H   0  0  0  0  0  0  0  0  0  0  0  0
    1.5927    3.7967   -0.3127 H   0  0  0  0  0  0  0  0  0  0  0  0
    1.7104    3.3395    1.3932 H   0  0  0  0  0  0  0  0  0  0  0  0
    2.1022   -2.8069   -0.8596 H   0  0  0  0  0  0  0  0  0  0  0  0
   -0.9421    0.4702   -2.6167 H   0  0  0  0  0  0  0  0  0  0  0  0
   -0.2542   -1.1436   -2.8254 H   0  0  0  0  0  0  0  0  0  0  0  0
   -1.4036   -1.9432   -0.7341 H   0  0  0  0  0  0  0  0  0  0  0  0
   -4.1144   -2.4048   -0.7061 H   0  0  0  0  0  0  0  0  0  0  0  0
   -4.9236   -0.9017   -0.2898 H   0  0  0  0  0  0  0  0  0  0  0  0
   -4.1963   -2.2075    1.7301 H   0  0  0  0  0  0  0  0  0  0  0  0
   -2.5253   -2.0656    1.2345 H   0  0  0  0  0  0  0  0  0  0  0  0
   -2.9461    0.4514    3.5702 H   0  0  0  0  0  0  0  0  0  0  0  0
   -3.9903    1.2465   -1.0903 H   0  0  0  0  0  0  0  0  0  0  0  0
   -4.3794    0.2684   -2.5098 H   0  0  0  0  0  0  0  0  0  0  0  0
   -2.8358    1.1328   -2.4362 H   0  0  0  0  0  0  0  0  0  0  0  0
   -0.6636    2.9623    0.6975 H   0  0  0  0  0  0  0  0  0  0  0  0
   -1.6612    1.6150    0.0713 H   0  0  0  0  0  0  0  0  0  0  0  0
   -1.7893    3.2388   -0.6603 H   0  0  0  0  0  0  0  0  0  0  0  0
  1  6  1  0  0  0  0
  2  1  2  0  0  0  0
  3  4  2  0  0  0  0
  3  1  1  0  0  0  0
  4  5  1  0  0  0  0
  5 24  1  0  0  0  0
  6  5  1  0  0  0  0
  7  4  1  0  0  0  0
  7  8  1  0  0  0  0
  8 26  1  0  0  0  0
  8 28  1  0  0  0  0
  9  7  2  0  0  0  0
 10 11  2  0  0  0  0
 10  9  1  0  0  0  0
 11  3  1  0  0  0  0
 12 29  1  0  0  0  0
 12 11  1  0  0  0  0
 13 14  1  0  0  0  0
 13 10  1  0  0  0  0
 14 15  2  0  0  0  0
 14 32  1  0  0  0  0
 15 16  1  0  0  0  0
 16 17  1  0  0  0  0
 17 36  1  0  0  0  0
 17 35  1  0  0  0  0
 17 18  1  0  0  0  0
 18 20  1  0  0  0  0
 19 18  2  0  0  0  0
 20 37  1  0  0  0  0
 21 15  1  0  0  0  0
 21 38  1  0  0  0  0
 22  9  1  0  0  0  0
 22 23  1  0  0  0  0
 23 42  1  0  0  0  0
 23 41  1  0  0  0  0
 25  5  1  0  0  0  0
 27  8  1  0  0  0  0
 30 13  1  0  0  0  0
 31 13  1  0  0  0  0
 33 16  1  0  0  0  0
 34 16  1  0  0  0  0
 39 21  1  0  0  0  0
 40 21  1  0  0  0  0
 43 23  1  0  0  0  0
M  END
