astex_1of1_11.log
 OpenBabel09261812563D

 34 36  0  0  1  0  0  0  0  0999 V2000
    3.8424    1.4066    1.8719 O   0  0  0  0  0  0  0  0  0  0  0  0
    3.5201    1.1677    0.5164 C   0  0  0  0  0  0  0  0  0  0  0  0
    2.8196   -0.1674    0.2952 C   0  0  2  0  0  0  0  0  0  0  0  0
    2.4572   -0.3930   -1.1939 C   0  0  1  0  0  0  0  0  0  0  0  0
    3.4554   -1.0707   -1.9328 O   0  0  0  0  0  0  0  0  0  0  0  0
    1.1651   -1.2183   -1.1901 C   0  0  0  0  0  0  0  0  0  0  0  0
    0.4667   -0.8375    0.1136 C   0  0  2  0  0  0  0  0  0  0  0  0
   -0.8612   -0.2812    0.0476 N   0  0  0  0  0  0  0  0  0  0  0  0
   -0.9815    1.0110   -0.4467 C   0  0  0  0  0  0  0  0  0  0  0  0
   -0.0317    1.6841   -0.8028 O   0  0  0  0  0  0  0  0  0  0  0  0
   -2.2824    1.4707   -0.5016 N   0  0  0  0  0  0  0  0  0  0  0  0
   -3.4574    0.7858   -0.1771 C   0  0  0  0  0  0  0  0  0  0  0  0
   -4.5415    1.3248   -0.2908 O   0  0  0  0  0  0  0  0  0  0  0  0
   -3.2394   -0.5876    0.2841 C   0  0  0  0  0  0  0  0  0  0  0  0
   -1.9751   -1.0384    0.3633 C   0  0  0  0  0  0  0  0  0  0  0  0
   -4.4478   -1.3998    0.6388 C   0  0  0  0  0  0  0  0  0  0  0  0
    1.4926   -0.2380    1.0351 C   0  0  1  0  0  0  0  0  0  0  0  0
    0.8864   -1.5758    1.3513 C   0  0  0  0  0  0  0  0  0  0  0  0
    4.4357    0.7014    2.1596 H   0  0  0  0  0  0  0  0  0  0  0  0
    2.8455    1.9785    0.2199 H   0  0  0  0  0  0  0  0  0  0  0  0
    4.4177    1.2289   -0.1233 H   0  0  0  0  0  0  0  0  0  0  0  0
    3.4894   -0.9858    0.6020 H   0  0  0  0  0  0  0  0  0  0  0  0
    2.2348    0.5855   -1.6441 H   0  0  0  0  0  0  0  0  0  0  0  0
    4.1361   -0.4318   -2.1742 H   0  0  0  0  0  0  0  0  0  0  0  0
    1.4195   -2.2848   -1.2208 H   0  0  0  0  0  0  0  0  0  0  0  0
    0.5411   -0.9986   -2.0606 H   0  0  0  0  0  0  0  0  0  0  0  0
   -2.3935    2.4151   -0.8485 H   0  0  0  0  0  0  0  0  0  0  0  0
   -1.7437   -2.0464    0.6951 H   0  0  0  0  0  0  0  0  0  0  0  0
   -5.1314   -1.4679   -0.2135 H   0  0  0  0  0  0  0  0  0  0  0  0
   -5.0053   -0.9274    1.4543 H   0  0  0  0  0  0  0  0  0  0  0  0
   -4.1681   -2.4120    0.9460 H   0  0  0  0  0  0  0  0  0  0  0  0
    1.2197    0.5941    1.6779 H   0  0  0  0  0  0  0  0  0  0  0  0
    1.4800   -2.4780    1.2174 H   0  0  0  0  0  0  0  0  0  0  0  0
    0.1919   -1.6089    2.1875 H   0  0  0  0  0  0  0  0  0  0  0  0
  1 19  1  0  0  0  0
  2  1  1  0  0  0  0
  3  4  1  6  0  0  0
  3  2  1  0  0  0  0
  3 22  1  0  0  0  0
  4 23  1  6  0  0  0
  4  6  1  0  0  0  0
  5  4  1  0  0  0  0
  6  7  1  0  0  0  0
  7 17  1  1  0  0  0
  7 18  1  0  0  0  0
  8  7  1  0  0  0  0
  8 15  1  0  0  0  0
  9  8  1  0  0  0  0
 10  9  2  0  0  0  0
 11  9  1  0  0  0  0
 11 12  1  0  0  0  0
 12 14  1  0  0  0  0
 13 12  2  0  0  0  0
 14 15  2  0  0  0  0
 14 16  1  0  0  0  0
 15 28  1  0  0  0  0
 16 31  1  0  0  0  0
 16 30  1  0  0  0  0
 17  3  1  6  0  0  0
 17 18  1  0  0  0  0
 17 32  1  0  0  0  0
 18 34  1  0  0  0  0
 20  2  1  0  0  0  0
 21  2  1  0  0  0  0
 24  5  1  0  0  0  0
 25  6  1  0  0  0  0
 26  6  1  0  0  0  0
 27 11  1  0  0  0  0
 29 16  1  0  0  0  0
 33 18  1  0  0  0  0
M  END
