astex_1n2j_13.log
 OpenBabel09261812563D

 22 21  0  0  1  0  0  0  0  0999 V2000
   -2.2212   -1.2493   -0.5617 O   0  0  0  0  0  0  0  0  0  0  0  0
   -1.5929   -0.3507   -0.0584 C   0  0  0  0  0  0  0  0  0  0  0  0
   -2.0196    0.9144   -0.0813 O   0  0  0  0  0  0  0  0  0  0  0  0
   -0.2728   -0.6146    0.6862 C   0  0  2  0  0  0  0  0  0  0  0  0
   -0.1824    0.1623    1.8682 O   0  0  0  0  0  0  0  0  0  0  0  0
    1.0058   -0.3448   -0.1484 C   0  0  0  0  0  0  0  0  0  0  0  0
    0.7951   -0.7877   -1.6001 C   0  0  0  0  0  0  0  0  0  0  0  0
    2.1558   -1.1450    0.4772 C   0  0  0  0  0  0  0  0  0  0  0  0
    1.4045    1.1391   -0.0774 C   0  0  0  0  0  0  0  0  0  0  0  0
    0.3877    2.0499   -0.4808 O   0  0  0  0  0  0  0  0  0  0  0  0
   -1.2745    1.4979    0.1787 H   0  0  0  0  0  0  0  0  0  0  0  0
   -0.3024   -1.6885    0.9155 H   0  0  0  0  0  0  0  0  0  0  0  0
   -0.8908   -0.1089    2.4655 H   0  0  0  0  0  0  0  0  0  0  0  0
    1.7386   -0.7255   -2.1545 H   0  0  0  0  0  0  0  0  0  0  0  0
    0.4354   -1.8208   -1.6501 H   0  0  0  0  0  0  0  0  0  0  0  0
    0.0496   -0.1729   -2.1193 H   0  0  0  0  0  0  0  0  0  0  0  0
    1.9869   -2.2210    0.3584 H   0  0  0  0  0  0  0  0  0  0  0  0
    2.2447   -0.9255    1.5463 H   0  0  0  0  0  0  0  0  0  0  0  0
    3.1104   -0.9033   -0.0053 H   0  0  0  0  0  0  0  0  0  0  0  0
    1.6353    1.4053    0.9554 H   0  0  0  0  0  0  0  0  0  0  0  0
    2.3099    1.2916   -0.6828 H   0  0  0  0  0  0  0  0  0  0  0  0
    0.2677    1.9768   -1.4367 H   0  0  0  0  0  0  0  0  0  0  0  0
  1  2  2  0  0  0  0
  2  4  1  0  0  0  0
  3  2  1  0  0  0  0
  3 11  1  0  0  0  0
  4 12  1  1  0  0  0
  4  5  1  0  0  0  0
  5 13  1  0  0  0  0
  6  9  1  0  0  0  0
  6  8  1  0  0  0  0
  6  4  1  0  0  0  0
  7  6  1  0  0  0  0
  8 18  1  0  0  0  0
  9 20  1  0  0  0  0
 10  9  1  0  0  0  0
 14  7  1  0  0  0  0
 15  7  1  0  0  0  0
 16  7  1  0  0  0  0
 17  8  1  0  0  0  0
 19  8  1  0  0  0  0
 21  9  1  0  0  0  0
 22 10  1  0  0  0  0
M  END
