astex_1of1_07.log
 OpenBabel09261812563D

 34 36  0  0  1  0  0  0  0  0999 V2000
    2.5951    2.5148    0.6902 O   0  0  0  0  0  0  0  0  0  0  0  0
    3.0804    1.5342   -0.1941 C   0  0  0  0  0  0  0  0  0  0  0  0
    2.9560    0.0895    0.3440 C   0  0  2  0  0  0  0  0  0  0  0  0
    2.8760   -0.8897   -0.8398 C   0  0  1  0  0  0  0  0  0  0  0  0
    3.4159   -2.1393   -0.4300 O   0  0  0  0  0  0  0  0  0  0  0  0
    1.3697   -0.9757   -1.1782 C   0  0  0  0  0  0  0  0  0  0  0  0
    0.6547   -0.6924    0.1347 C   0  0  2  0  0  0  0  0  0  0  0  0
   -0.7098   -0.2249    0.0768 N   0  0  0  0  0  0  0  0  0  0  0  0
   -0.9455    1.1131   -0.1851 C   0  0  0  0  0  0  0  0  0  0  0  0
   -0.0643    1.9473   -0.3333 O   0  0  0  0  0  0  0  0  0  0  0  0
   -2.2799    1.4448   -0.2726 N   0  0  0  0  0  0  0  0  0  0  0  0
   -3.3929    0.6025   -0.1674 C   0  0  0  0  0  0  0  0  0  0  0  0
   -4.5181    1.0467   -0.2822 O   0  0  0  0  0  0  0  0  0  0  0  0
   -3.0538   -0.8000    0.0835 C   0  0  0  0  0  0  0  0  0  0  0  0
   -1.7546   -1.1285    0.1864 C   0  0  0  0  0  0  0  0  0  0  0  0
   -4.1831   -1.7764    0.2112 C   0  0  0  0  0  0  0  0  0  0  0  0
    1.6443   -0.0894    1.0854 C   0  0  1  0  0  0  0  0  0  0  0  0
    1.1079   -1.4696    1.3399 C   0  0  0  0  0  0  0  0  0  0  0  0
    1.6407    2.5656    0.5204 H   0  0  0  0  0  0  0  0  0  0  0  0
    2.5572    1.6064   -1.1593 H   0  0  0  0  0  0  0  0  0  0  0  0
    4.1382    1.7533   -0.3806 H   0  0  0  0  0  0  0  0  0  0  0  0
    3.8183   -0.1613    0.9712 H   0  0  0  0  0  0  0  0  0  0  0  0
    3.4470   -0.5091   -1.7005 H   0  0  0  0  0  0  0  0  0  0  0  0
    3.3996   -2.7308   -1.1929 H   0  0  0  0  0  0  0  0  0  0  0  0
    1.1103   -1.9481   -1.6159 H   0  0  0  0  0  0  0  0  0  0  0  0
    1.0993   -0.1977   -1.9019 H   0  0  0  0  0  0  0  0  0  0  0  0
   -2.4716    2.4219   -0.4559 H   0  0  0  0  0  0  0  0  0  0  0  0
   -1.4310   -2.1480    0.3753 H   0  0  0  0  0  0  0  0  0  0  0  0
   -4.8499   -1.4907    1.0311 H   0  0  0  0  0  0  0  0  0  0  0  0
   -4.7891   -1.7871   -0.7006 H   0  0  0  0  0  0  0  0  0  0  0  0
   -3.8112   -2.7882    0.3972 H   0  0  0  0  0  0  0  0  0  0  0  0
    1.3394    0.6998    1.7639 H   0  0  0  0  0  0  0  0  0  0  0  0
    1.7462   -2.3322    1.1764 H   0  0  0  0  0  0  0  0  0  0  0  0
    0.4001   -1.5556    2.1610 H   0  0  0  0  0  0  0  0  0  0  0  0
  2  3  1  0  0  0  0
  2  1  1  0  0  0  0
  3  4  1  6  0  0  0
  3 22  1  0  0  0  0
  4 23  1  6  0  0  0
  4  5  1  0  0  0  0
  6  4  1  0  0  0  0
  6  7  1  0  0  0  0
  7 17  1  1  0  0  0
  7 18  1  0  0  0  0
  8  7  1  0  0  0  0
  8 15  1  0  0  0  0
  9  8  1  0  0  0  0
 10  9  2  0  0  0  0
 11  9  1  0  0  0  0
 11 12  1  0  0  0  0
 12 14  1  0  0  0  0
 13 12  2  0  0  0  0
 14 15  2  0  0  0  0
 14 16  1  0  0  0  0
 15 28  1  0  0  0  0
 16 31  1  0  0  0  0
 16 29  1  0  0  0  0
 17  3  1  6  0  0  0
 17 18  1  0  0  0  0
 17 32  1  0  0  0  0
 18 34  1  0  0  0  0
 19  1  1  0  0  0  0
 20  2  1  0  0  0  0
 21  2  1  0  0  0  0
 24  5  1  0  0  0  0
 25  6  1  0  0  0  0
 26  6  1  0  0  0  0
 27 11  1  0  0  0  0
 30 16  1  0  0  0  0
 33 18  1  0  0  0  0
M  END
