astex_1n2j_07.log
 OpenBabel09261812563D

 22 21  0  0  1  0  0  0  0  0999 V2000
   -1.4468    1.5236    0.6359 O   0  0  0  0  0  0  0  0  0  0  0  0
   -1.5342    0.4849    0.0267 C   0  0  0  0  0  0  0  0  0  0  0  0
   -2.7366   -0.0374   -0.3087 O   0  0  0  0  0  0  0  0  0  0  0  0
   -0.3989   -0.3669   -0.5378 C   0  0  2  0  0  0  0  0  0  0  0  0
   -0.8042   -1.7145   -0.6625 O   0  0  0  0  0  0  0  0  0  0  0  0
    0.9050   -0.3280    0.2883 C   0  0  0  0  0  0  0  0  0  0  0  0
    1.9032   -1.2979   -0.3591 C   0  0  0  0  0  0  0  0  0  0  0  0
    0.6365   -0.7445    1.7374 C   0  0  0  0  0  0  0  0  0  0  0  0
    1.5068    1.0813    0.2707 C   0  0  0  0  0  0  0  0  0  0  0  0
    1.7026    1.4820   -1.0785 O   0  0  0  0  0  0  0  0  0  0  0  0
   -3.4060    0.5755    0.0374 H   0  0  0  0  0  0  0  0  0  0  0  0
   -0.1755    0.0716   -1.5242 H   0  0  0  0  0  0  0  0  0  0  0  0
   -1.6909   -1.7211   -1.0454 H   0  0  0  0  0  0  0  0  0  0  0  0
    1.5157   -2.3193   -0.3550 H   0  0  0  0  0  0  0  0  0  0  0  0
    2.1139   -1.0063   -1.3928 H   0  0  0  0  0  0  0  0  0  0  0  0
    2.8479   -1.2791    0.1973 H   0  0  0  0  0  0  0  0  0  0  0  0
   -0.0204   -0.0303    2.2465 H   0  0  0  0  0  0  0  0  0  0  0  0
    1.5755   -0.8018    2.3001 H   0  0  0  0  0  0  0  0  0  0  0  0
    0.1649   -1.7318    1.7622 H   0  0  0  0  0  0  0  0  0  0  0  0
    0.8438    1.7785    0.7942 H   0  0  0  0  0  0  0  0  0  0  0  0
    2.4682    1.0431    0.8092 H   0  0  0  0  0  0  0  0  0  0  0  0
    1.9329    2.4177   -1.0777 H   0  0  0  0  0  0  0  0  0  0  0  0
  2  1  2  0  0  0  0
  3  2  1  0  0  0  0
  3 11  1  0  0  0  0
  4 12  1  6  0  0  0
  4  2  1  0  0  0  0
  4  6  1  0  0  0  0
  5  4  1  0  0  0  0
  6  8  1  0  0  0  0
  7 14  1  0  0  0  0
  7 16  1  0  0  0  0
  7  6  1  0  0  0  0
  8 19  1  0  0  0  0
  8 17  1  0  0  0  0
  8 18  1  0  0  0  0
  9  6  1  0  0  0  0
  9 20  1  0  0  0  0
  9 21  1  0  0  0  0
 10 22  1  0  0  0  0
 10  9  1  0  0  0  0
 13  5  1  0  0  0  0
 15  7  1  0  0  0  0
M  END
