astex_1meh_28.log
 OpenBabel09261812563D

 43 44  0  0  0  0  0  0  0  0999 V2000
   -3.1495   -2.4887   -0.1599 C   0  0  0  0  0  0  0  0  0  0  0  0
   -2.6610   -3.5607   -0.3798 O   0  0  0  0  0  0  0  0  0  0  0  0
   -2.5452   -1.1375   -0.1093 C   0  0  0  0  0  0  0  0  0  0  0  0
   -3.5338   -0.2191    0.1960 C   0  0  0  0  0  0  0  0  0  0  0  0
   -4.8249   -0.9763    0.3420 C   0  0  0  0  0  0  0  0  0  0  0  0
   -4.4881   -2.3413    0.1094 O   0  0  0  0  0  0  0  0  0  0  0  0
   -3.2868    1.1380    0.3387 C   0  0  0  0  0  0  0  0  0  0  0  0
   -4.3687    2.1216    0.6980 C   0  0  0  0  0  0  0  0  0  0  0  0
   -1.9558    1.5311    0.1361 C   0  0  0  0  0  0  0  0  0  0  0  0
   -0.9203    0.6333   -0.1726 C   0  0  0  0  0  0  0  0  0  0  0  0
   -1.2222   -0.7343   -0.2891 C   0  0  0  0  0  0  0  0  0  0  0  0
   -0.2944   -1.6644   -0.5904 O   0  0  0  0  0  0  0  0  0  0  0  0
    0.4927    1.1302   -0.4070 C   0  0  0  0  0  0  0  0  0  0  0  0
    1.5183    0.4534    0.4700 C   0  0  0  0  0  0  0  0  0  0  0  0
    2.6700   -0.1185    0.0903 C   0  0  0  0  0  0  0  0  0  0  0  0
    3.5872   -0.7084    1.1412 C   0  0  0  0  0  0  0  0  0  0  0  0
    4.9068    0.0668    1.3272 C   0  0  0  0  0  0  0  0  0  0  0  0
    5.8605    0.0004    0.1462 C   0  0  0  0  0  0  0  0  0  0  0  0
    6.2529    0.9571   -0.4655 O   0  0  0  0  0  0  0  0  0  0  0  0
    6.2674   -1.2428   -0.2081 O   0  0  0  0  0  0  0  0  0  0  0  0
    3.1563   -0.1973   -1.3375 C   0  0  0  0  0  0  0  0  0  0  0  0
   -1.6389    2.8650    0.2696 O   0  0  0  0  0  0  0  0  0  0  0  0
   -1.8638    3.6212   -0.9112 C   0  0  0  0  0  0  0  0  0  0  0  0
   -5.2582   -0.8851    1.3453 H   0  0  0  0  0  0  0  0  0  0  0  0
   -5.5806   -0.6697   -0.3903 H   0  0  0  0  0  0  0  0  0  0  0  0
   -5.0659    1.6895    1.4246 H   0  0  0  0  0  0  0  0  0  0  0  0
   -3.9376    3.0247    1.1371 H   0  0  0  0  0  0  0  0  0  0  0  0
   -4.9579    2.4196   -0.1789 H   0  0  0  0  0  0  0  0  0  0  0  0
    0.5895   -1.2958   -0.4285 H   0  0  0  0  0  0  0  0  0  0  0  0
    0.5126    2.2038   -0.1929 H   0  0  0  0  0  0  0  0  0  0  0  0
    0.7538    1.0171   -1.4664 H   0  0  0  0  0  0  0  0  0  0  0  0
    1.2732    0.4560    1.5337 H   0  0  0  0  0  0  0  0  0  0  0  0
    3.0703   -0.7268    2.1063 H   0  0  0  0  0  0  0  0  0  0  0  0
    3.7991   -1.7587    0.8887 H   0  0  0  0  0  0  0  0  0  0  0  0
    4.6996    1.1236    1.5100 H   0  0  0  0  0  0  0  0  0  0  0  0
    5.4302   -0.3275    2.2087 H   0  0  0  0  0  0  0  0  0  0  0  0
    5.8985   -1.9022    0.3959 H   0  0  0  0  0  0  0  0  0  0  0  0
    3.6799   -1.1429   -1.5185 H   0  0  0  0  0  0  0  0  0  0  0  0
    2.3440   -0.1215   -2.0652 H   0  0  0  0  0  0  0  0  0  0  0  0
    3.8707    0.6061   -1.5517 H   0  0  0  0  0  0  0  0  0  0  0  0
   -2.9161    3.5763   -1.2199 H   0  0  0  0  0  0  0  0  0  0  0  0
   -1.5983    4.6540   -0.6768 H   0  0  0  0  0  0  0  0  0  0  0  0
   -1.2358    3.2597   -1.7364 H   0  0  0  0  0  0  0  0  0  0  0  0
  1  3  1  0  0  0  0
  1  6  1  0  0  0  0
  2  1  2  0  0  0  0
  3  4  2  0  0  0  0
  4  7  1  0  0  0  0
  4  5  1  0  0  0  0
  5 24  1  0  0  0  0
  6  5  1  0  0  0  0
  7  8  1  0  0  0  0
  8 27  1  0  0  0  0
  8 26  1  0  0  0  0
  9 22  1  0  0  0  0
  9  7  2  0  0  0  0
 10  9  1  0  0  0  0
 11 10  2  0  0  0  0
 11  3  1  0  0  0  0
 12 29  1  0  0  0  0
 12 11  1  0  0  0  0
 13 30  1  0  0  0  0
 13 10  1  0  0  0  0
 13 14  1  0  0  0  0
 14 32  1  0  0  0  0
 15 14  2  0  0  0  0
 15 16  1  0  0  0  0
 16 17  1  0  0  0  0
 16 33  1  0  0  0  0
 17 35  1  0  0  0  0
 17 36  1  0  0  0  0
 18 17  1  0  0  0  0
 19 18  2  0  0  0  0
 20 18  1  0  0  0  0
 20 37  1  0  0  0  0
 21 15  1  0  0  0  0
 23 42  1  0  0  0  0
 23 22  1  0  0  0  0
 25  5  1  0  0  0  0
 28  8  1  0  0  0  0
 31 13  1  0  0  0  0
 34 16  1  0  0  0  0
 38 21  1  0  0  0  0
 39 21  1  0  0  0  0
 40 21  1  0  0  0  0
 41 23  1  0  0  0  0
 43 23  1  0  0  0  0
M  END
