astex_1of1_10.log
 OpenBabel09261812563D

 34 36  0  0  1  0  0  0  0  0999 V2000
    4.7312    1.3903    0.1781 O   0  0  0  0  0  0  0  0  0  0  0  0
    3.4906    1.3333    0.8427 C   0  0  0  0  0  0  0  0  0  0  0  0
    2.7441    0.0415    0.5282 C   0  0  2  0  0  0  0  0  0  0  0  0
    2.3727   -0.0595   -0.9663 C   0  0  1  0  0  0  0  0  0  0  0  0
    3.4705   -0.2937   -1.8287 O   0  0  0  0  0  0  0  0  0  0  0  0
    1.2249   -1.0780   -1.0337 C   0  0  0  0  0  0  0  0  0  0  0  0
    0.4581   -0.8136    0.2621 C   0  0  2  0  0  0  0  0  0  0  0  0
   -0.9240   -0.4188    0.1741 N   0  0  0  0  0  0  0  0  0  0  0  0
   -1.8662   -1.4339    0.0399 C   0  0  0  0  0  0  0  0  0  0  0  0
   -1.5775   -2.6130    0.0318 O   0  0  0  0  0  0  0  0  0  0  0  0
   -3.1649   -0.9759   -0.0822 N   0  0  0  0  0  0  0  0  0  0  0  0
   -3.6156    0.3448   -0.1514 C   0  0  0  0  0  0  0  0  0  0  0  0
   -4.7989    0.5922   -0.2807 O   0  0  0  0  0  0  0  0  0  0  0  0
   -2.5485    1.3464   -0.0602 C   0  0  0  0  0  0  0  0  0  0  0  0
   -1.2842    0.9154    0.0887 C   0  0  0  0  0  0  0  0  0  0  0  0
   -2.9434    2.7896   -0.1401 C   0  0  0  0  0  0  0  0  0  0  0  0
    1.4014   -0.1229    1.2299 C   0  0  1  0  0  0  0  0  0  0  0  0
    0.9154   -1.5187    1.4965 C   0  0  0  0  0  0  0  0  0  0  0  0
    4.5834    1.0922   -0.7336 H   0  0  0  0  0  0  0  0  0  0  0  0
    3.7014    1.4058    1.9155 H   0  0  0  0  0  0  0  0  0  0  0  0
    2.8474    2.1930    0.5770 H   0  0  0  0  0  0  0  0  0  0  0  0
    3.4127   -0.7960    0.7823 H   0  0  0  0  0  0  0  0  0  0  0  0
    1.9819    0.9187   -1.2800 H   0  0  0  0  0  0  0  0  0  0  0  0
    3.8540   -1.1508   -1.5948 H   0  0  0  0  0  0  0  0  0  0  0  0
    0.5958   -0.9386   -1.9168 H   0  0  0  0  0  0  0  0  0  0  0  0
    1.6121   -2.1050   -1.0640 H   0  0  0  0  0  0  0  0  0  0  0  0
   -3.8701   -1.6966   -0.1708 H   0  0  0  0  0  0  0  0  0  0  0  0
   -0.4492    1.6067    0.1636 H   0  0  0  0  0  0  0  0  0  0  0  0
   -3.6447    3.0438    0.6612 H   0  0  0  0  0  0  0  0  0  0  0  0
   -3.4548    2.9980   -1.0854 H   0  0  0  0  0  0  0  0  0  0  0  0
   -2.0701    3.4442   -0.0626 H   0  0  0  0  0  0  0  0  0  0  0  0
    1.0429    0.6736    1.8797 H   0  0  0  0  0  0  0  0  0  0  0  0
    1.6060   -2.3511    1.3826 H   0  0  0  0  0  0  0  0  0  0  0  0
    0.1757   -1.6477    2.2810 H   0  0  0  0  0  0  0  0  0  0  0  0
  1  2  1  0  0  0  0
  2 20  1  0  0  0  0
  3  4  1  6  0  0  0
  3 22  1  0  0  0  0
  3  2  1  0  0  0  0
  4 23  1  6  0  0  0
  5 24  1  0  0  0  0
  5  4  1  0  0  0  0
  6  4  1  0  0  0  0
  6  7  1  0  0  0  0
  7 17  1  1  0  0  0
  7 18  1  0  0  0  0
  8  7  1  0  0  0  0
  9  8  1  0  0  0  0
 10  9  2  0  0  0  0
 11  9  1  0  0  0  0
 12 11  1  0  0  0  0
 12 14  1  0  0  0  0
 13 12  2  0  0  0  0
 14 15  2  0  0  0  0
 15 28  1  0  0  0  0
 15  8  1  0  0  0  0
 16 31  1  0  0  0  0
 16 14  1  0  0  0  0
 16 29  1  0  0  0  0
 17  3  1  6  0  0  0
 17 18  1  0  0  0  0
 17 32  1  0  0  0  0
 18 34  1  0  0  0  0
 19  1  1  0  0  0  0
 21  2  1  0  0  0  0
 25  6  1  0  0  0  0
 26  6  1  0  0  0  0
 27 11  1  0  0  0  0
 30 16  1  0  0  0  0
 33 18  1  0  0  0  0
M  END
