astex_1n2j_04.log
 OpenBabel09261812563D

 22 21  0  0  1  0  0  0  0  0999 V2000
   -2.6447   -0.1456    0.2532 O   0  0  0  0  0  0  0  0  0  0  0  0
   -1.5913    0.3668   -0.0592 C   0  0  0  0  0  0  0  0  0  0  0  0
   -1.4181    1.6758   -0.0035 O   0  0  0  0  0  0  0  0  0  0  0  0
   -0.4513   -0.5312   -0.5991 C   0  0  2  0  0  0  0  0  0  0  0  0
   -0.9095   -1.8515   -0.5143 O   0  0  0  0  0  0  0  0  0  0  0  0
    0.9285   -0.4059    0.1206 C   0  0  0  0  0  0  0  0  0  0  0  0
    0.7394   -0.2405    1.6318 C   0  0  0  0  0  0  0  0  0  0  0  0
    1.7235   -1.6910   -0.1607 C   0  0  0  0  0  0  0  0  0  0  0  0
    1.7763    0.7277   -0.4620 C   0  0  0  0  0  0  0  0  0  0  0  0
    1.1833    2.0051   -0.2190 O   0  0  0  0  0  0  0  0  0  0  0  0
   -0.4805    1.9157   -0.1945 H   0  0  0  0  0  0  0  0  0  0  0  0
   -0.3080   -0.2527   -1.6602 H   0  0  0  0  0  0  0  0  0  0  0  0
   -1.8390   -1.7771   -0.2263 H   0  0  0  0  0  0  0  0  0  0  0  0
    0.2820    0.7216    1.8841 H   0  0  0  0  0  0  0  0  0  0  0  0
    0.0930   -1.0401    2.0093 H   0  0  0  0  0  0  0  0  0  0  0  0
    1.7013   -0.3049    2.1528 H   0  0  0  0  0  0  0  0  0  0  0  0
    1.8406   -1.8641   -1.2372 H   0  0  0  0  0  0  0  0  0  0  0  0
    2.7208   -1.6241    0.2898 H   0  0  0  0  0  0  0  0  0  0  0  0
    1.2060   -2.5549    0.2574 H   0  0  0  0  0  0  0  0  0  0  0  0
    1.9008    0.5702   -1.5436 H   0  0  0  0  0  0  0  0  0  0  0  0
    2.7699    0.7009    0.0052 H   0  0  0  0  0  0  0  0  0  0  0  0
    1.6753    2.6829   -0.6971 H   0  0  0  0  0  0  0  0  0  0  0  0
  2  3  1  0  0  0  0
  2  1  2  0  0  0  0
  4 12  1  6  0  0  0
  4  5  1  0  0  0  0
  4  2  1  0  0  0  0
  4  6  1  0  0  0  0
  5 13  1  0  0  0  0
  6  7  1  0  0  0  0
  7 14  1  0  0  0  0
  7 15  1  0  0  0  0
  7 16  1  0  0  0  0
  8  6  1  0  0  0  0
  8 19  1  0  0  0  0
  8 18  1  0  0  0  0
  9 10  1  0  0  0  0
  9 21  1  0  0  0  0
  9  6  1  0  0  0  0
 11  3  1  0  0  0  0
 17  8  1  0  0  0  0
 20  9  1  0  0  0  0
 22 10  1  0  0  0  0
M  END
