astex_1of1_01.log
 OpenBabel09261812563D

 34 36  0  0  1  0  0  0  0  0999 V2000
    2.5298    2.0981   -0.6978 O   0  0  0  0  0  0  0  0  0  0  0  0
    3.3105    1.5185    0.3183 C   0  0  0  0  0  0  0  0  0  0  0  0
    2.9796    0.0424    0.5731 C   0  0  2  0  0  0  0  0  0  0  0  0
    2.8942   -0.7497   -0.7579 C   0  0  1  0  0  0  0  0  0  0  0  0
    3.3004   -2.1080   -0.6121 O   0  0  0  0  0  0  0  0  0  0  0  0
    1.4095   -0.7509   -1.1446 C   0  0  0  0  0  0  0  0  0  0  0  0
    0.6558   -0.6165    0.1695 C   0  0  2  0  0  0  0  0  0  0  0  0
   -0.7184   -0.1696    0.1246 N   0  0  0  0  0  0  0  0  0  0  0  0
   -1.0066    1.1801    0.0735 C   0  0  0  0  0  0  0  0  0  0  0  0
   -0.1665    2.0681    0.1091 O   0  0  0  0  0  0  0  0  0  0  0  0
   -2.3506    1.4710   -0.0083 N   0  0  0  0  0  0  0  0  0  0  0  0
   -3.4286    0.5824   -0.0879 C   0  0  0  0  0  0  0  0  0  0  0  0
   -4.5681    0.9964   -0.1684 O   0  0  0  0  0  0  0  0  0  0  0  0
   -3.0351   -0.8281   -0.0643 C   0  0  0  0  0  0  0  0  0  0  0  0
   -1.7272   -1.1182    0.0372 C   0  0  0  0  0  0  0  0  0  0  0  0
   -4.1219   -1.8551   -0.1584 C   0  0  0  0  0  0  0  0  0  0  0  0
    1.6147   -0.1392    1.2216 C   0  0  1  0  0  0  0  0  0  0  0  0
    1.0490   -1.5310    1.2961 C   0  0  0  0  0  0  0  0  0  0  0  0
    1.6128    2.1698   -0.3769 H   0  0  0  0  0  0  0  0  0  0  0  0
    4.3524    1.5960   -0.0156 H   0  0  0  0  0  0  0  0  0  0  0  0
    3.2305    2.0797    1.2639 H   0  0  0  0  0  0  0  0  0  0  0  0
    3.7727   -0.3804    1.2076 H   0  0  0  0  0  0  0  0  0  0  0  0
    3.4942   -0.2609   -1.5370 H   0  0  0  0  0  0  0  0  0  0  0  0
    4.2321   -2.1078   -0.3589 H   0  0  0  0  0  0  0  0  0  0  0  0
    1.1990    0.1274   -1.7625 H   0  0  0  0  0  0  0  0  0  0  0  0
    1.1581   -1.6579   -1.7050 H   0  0  0  0  0  0  0  0  0  0  0  0
   -2.5770    2.4573   -0.0383 H   0  0  0  0  0  0  0  0  0  0  0  0
   -1.3644   -2.1416    0.0644 H   0  0  0  0  0  0  0  0  0  0  0  0
   -4.6767   -1.7442   -1.0956 H   0  0  0  0  0  0  0  0  0  0  0  0
   -3.7125   -2.8684   -0.1112 H   0  0  0  0  0  0  0  0  0  0  0  0
   -4.8443   -1.7289    0.6544 H   0  0  0  0  0  0  0  0  0  0  0  0
    1.2883    0.5839    1.9649 H   0  0  0  0  0  0  0  0  0  0  0  0
    0.3005   -1.7023    2.0661 H   0  0  0  0  0  0  0  0  0  0  0  0
    1.6892   -2.3761    1.0632 H   0  0  0  0  0  0  0  0  0  0  0  0
  1 19  1  0  0  0  0
  1  2  1  0  0  0  0
  2  3  1  0  0  0  0
  2 21  1  0  0  0  0
  3  4  1  6  0  0  0
  3 22  1  0  0  0  0
  4 23  1  6  0  0  0
  4  5  1  0  0  0  0
  5 24  1  0  0  0  0
  6  4  1  0  0  0  0
  6  7  1  0  0  0  0
  7 17  1  1  0  0  0
  7 18  1  0  0  0  0
  8  7  1  0  0  0  0
  9 10  2  0  0  0  0
  9  8  1  0  0  0  0
 11  9  1  0  0  0  0
 12 14  1  0  0  0  0
 12 11  1  0  0  0  0
 13 12  2  0  0  0  0
 14 15  2  0  0  0  0
 15 28  1  0  0  0  0
 15  8  1  0  0  0  0
 16 30  1  0  0  0  0
 16 14  1  0  0  0  0
 16 31  1  0  0  0  0
 17  3  1  6  0  0  0
 17 18  1  0  0  0  0
 17 32  1  0  0  0  0
 18 33  1  0  0  0  0
 20  2  1  0  0  0  0
 25  6  1  0  0  0  0
 26  6  1  0  0  0  0
 27 11  1  0  0  0  0
 29 16  1  0  0  0  0
 34 18  1  0  0  0  0
M  END
