omegacsd_DIAVER_02.log
 OpenBabel09261812563D

 35 36  0  0  0  0  0  0  0  0999 V2000
    3.8276    0.8089   -0.8478 N   0  0  0  0  0  0  0  0  0  0  0  0
    3.9854    0.6160    0.4657 C   0  0  0  0  0  0  0  0  0  0  0  0
    3.2413   -0.1624    1.2630 N   0  0  0  0  0  0  0  0  0  0  0  0
    2.2343   -0.8143    0.6835 C   0  0  0  0  0  0  0  0  0  0  0  0
    1.9559   -0.7024   -0.7002 C   0  0  0  0  0  0  0  0  0  0  0  0
    2.8090    0.1356   -1.3905 C   0  0  0  0  0  0  0  0  0  0  0  0
    0.8395   -1.4678   -1.3616 C   0  0  0  0  0  0  0  0  0  0  0  0
   -0.5545   -1.1003   -0.8774 C   0  0  0  0  0  0  0  0  0  0  0  0
   -0.9242    0.2478   -0.7734 C   0  0  0  0  0  0  0  0  0  0  0  0
   -2.2007    0.6082   -0.3590 C   0  0  0  0  0  0  0  0  0  0  0  0
   -3.1309   -0.3975   -0.0199 C   0  0  0  0  0  0  0  0  0  0  0  0
   -2.7607   -1.7262   -0.1164 C   0  0  0  0  0  0  0  0  0  0  0  0
   -1.4797   -2.0826   -0.5469 C   0  0  0  0  0  0  0  0  0  0  0  0
   -4.4087   -0.0791    0.3540 O   0  0  0  0  0  0  0  0  0  0  0  0
   -4.5160    0.5181    1.6381 C   0  0  0  0  0  0  0  0  0  0  0  0
   -2.6457    1.8870   -0.2501 O   0  0  0  0  0  0  0  0  0  0  0  0
   -1.7589    2.9218   -0.6234 C   0  0  0  0  0  0  0  0  0  0  0  0
    1.4978   -1.6423    1.4859 N   0  0  0  0  0  0  0  0  0  0  0  0
    4.9929    1.3152    1.0726 N   0  0  0  0  0  0  0  0  0  0  0  0
    2.6699    0.2744   -2.4647 H   0  0  0  0  0  0  0  0  0  0  0  0
    0.9874   -2.5465   -1.2139 H   0  0  0  0  0  0  0  0  0  0  0  0
    0.8992   -1.2978   -2.4448 H   0  0  0  0  0  0  0  0  0  0  0  0
   -0.1894    1.0075   -1.0229 H   0  0  0  0  0  0  0  0  0  0  0  0
   -3.4986   -2.4802    0.1433 H   0  0  0  0  0  0  0  0  0  0  0  0
   -1.2100   -3.1337   -0.6302 H   0  0  0  0  0  0  0  0  0  0  0  0
   -5.5812    0.6858    1.8104 H   0  0  0  0  0  0  0  0  0  0  0  0
   -4.1254   -0.1556    2.4127 H   0  0  0  0  0  0  0  0  0  0  0  0
   -3.9834    1.4736    1.6794 H   0  0  0  0  0  0  0  0  0  0  0  0
   -2.3096    3.8536   -0.4874 H   0  0  0  0  0  0  0  0  0  0  0  0
   -0.8629    2.9325    0.0103 H   0  0  0  0  0  0  0  0  0  0  0  0
   -1.4573    2.8272   -1.6740 H   0  0  0  0  0  0  0  0  0  0  0  0
    1.6538   -1.5112    2.4750 H   0  0  0  0  0  0  0  0  0  0  0  0
    0.5425   -1.8315    1.2161 H   0  0  0  0  0  0  0  0  0  0  0  0
    5.7001    1.6872    0.4587 H   0  0  0  0  0  0  0  0  0  0  0  0
    5.2923    0.9762    1.9729 H   0  0  0  0  0  0  0  0  0  0  0  0
  1  2  2  0  0  0  0
  2 19  1  0  0  0  0
  2  3  1  0  0  0  0
  4  3  2  0  0  0  0
  4 18  1  0  0  0  0
  5  4  1  0  0  0  0
  6  1  1  0  0  0  0
  6  5  2  0  0  0  0
  7 21  1  0  0  0  0
  7  8  1  0  0  0  0
  7  5  1  0  0  0  0
  8  9  2  0  0  0  0
  8 13  1  0  0  0  0
  9 10  1  0  0  0  0
 10 16  1  0  0  0  0
 10 11  2  0  0  0  0
 11 14  1  0  0  0  0
 12 11  1  0  0  0  0
 12 24  1  0  0  0  0
 13 12  2  0  0  0  0
 14 15  1  0  0  0  0
 15 28  1  0  0  0  0
 15 26  1  0  0  0  0
 15 27  1  0  0  0  0
 17 29  1  0  0  0  0
 17 16  1  0  0  0  0
 17 30  1  0  0  0  0
 18 32  1  0  0  0  0
 19 35  1  0  0  0  0
 20  6  1  0  0  0  0
 22  7  1  0  0  0  0
 23  9  1  0  0  0  0
 25 13  1  0  0  0  0
 31 17  1  0  0  0  0
 33 18  1  0  0  0  0
 34 19  1  0  0  0  0
M  END
