omegapdb_1v2k_06.log
 OpenBabel09261812563D

 61 65  0  0  0  0  0  0  0  0999 V2000
   10.7029    0.5037   -0.0419 N   0  0  0  0  0  0  0  0  0  0  0  0
   10.1615   -0.6023    0.4800 C   0  0  0  0  0  0  0  0  0  0  0  0
    8.8095   -0.8981    0.4742 C   0  0  0  0  0  0  0  0  0  0  0  0
    7.9048    0.0043   -0.1120 C   0  0  0  0  0  0  0  0  0  0  0  0
    8.4655    1.1675   -0.6582 C   0  0  0  0  0  0  0  0  0  0  0  0
    9.8421    1.3542   -0.5970 C   0  0  0  0  0  0  0  0  0  0  0  0
    6.5390   -0.2823   -0.1687 N   0  0  0  0  0  0  0  0  0  0  0  0
    5.6836    0.6157   -0.9271 C   0  0  0  0  0  0  0  0  0  0  0  0
    4.3583   -0.0577   -1.2767 C   0  0  0  0  0  0  0  0  0  0  0  0
    3.6393   -0.5825   -0.0252 C   0  0  0  0  0  0  0  0  0  0  0  0
    4.5922   -1.5013    0.7392 C   0  0  0  0  0  0  0  0  0  0  0  0
    5.9005   -0.7836    1.0482 C   0  0  0  0  0  0  0  0  0  0  0  0
    2.3817   -1.3402   -0.4386 C   0  0  0  0  0  0  0  0  0  0  0  0
    2.4263   -2.5370   -0.6901 O   0  0  0  0  0  0  0  0  0  0  0  0
    1.2195   -0.6250   -0.5590 N   0  0  0  0  0  0  0  0  0  0  0  0
    0.0002   -1.3436   -0.9111 C   0  0  0  0  0  0  0  0  0  0  0  0
   -1.1568   -0.8801   -0.0389 C   0  0  0  0  0  0  0  0  0  0  0  0
   -1.3900    0.5641   -0.2388 N   0  0  0  0  0  0  0  0  0  0  0  0
   -0.2458    1.3077   -0.7834 C   0  0  0  0  0  0  0  0  0  0  0  0
    1.0817    0.7953   -0.2358 C   0  0  0  0  0  0  0  0  0  0  0  0
   -2.2159    1.3140    1.0125 S   0  0  0  0  0  0  0  0  0  0  0  0
   -1.7062    0.8710    2.3055 O   0  0  0  0  0  0  0  0  0  0  0  0
   -2.2528    2.7314    0.6860 O   0  0  0  0  0  0  0  0  0  0  0  0
   -3.8447    0.6309    0.8263 C   0  0  0  0  0  0  0  0  0  0  0  0
   -4.6998    1.1962   -0.0814 C   0  0  0  0  0  0  0  0  0  0  0  0
   -6.0012    0.6611   -0.2474 C   0  0  0  0  0  0  0  0  0  0  0  0
   -6.3948   -0.4550    0.5368 C   0  0  0  0  0  0  0  0  0  0  0  0
   -5.4801   -1.0013    1.4773 C   0  0  0  0  0  0  0  0  0  0  0  0
   -4.2283   -0.4702    1.6284 C   0  0  0  0  0  0  0  0  0  0  0  0
   -7.6973   -0.9955    0.3681 C   0  0  0  0  0  0  0  0  0  0  0  0
   -8.5510   -0.4373   -0.5414 C   0  0  0  0  0  0  0  0  0  0  0  0
   -8.1730    0.6787   -1.3286 C   0  0  0  0  0  0  0  0  0  0  0  0
   -6.9240    1.2121   -1.1784 C   0  0  0  0  0  0  0  0  0  0  0  0
  -10.1447   -1.0956   -0.7533 Cl  0  0  0  0  0  0  0  0  0  0  0  0
   10.8607   -1.3085    0.9265 H   0  0  0  0  0  0  0  0  0  0  0  0
    8.4715   -1.8411    0.8913 H   0  0  0  0  0  0  0  0  0  0  0  0
    7.8526    1.9391   -1.1103 H   0  0  0  0  0  0  0  0  0  0  0  0
   10.2737    2.2611   -1.0199 H   0  0  0  0  0  0  0  0  0  0  0  0
    5.4924    1.5540   -0.3718 H   0  0  0  0  0  0  0  0  0  0  0  0
    6.1936    0.8821   -1.8569 H   0  0  0  0  0  0  0  0  0  0  0  0
    3.7310    0.6560   -1.8263 H   0  0  0  0  0  0  0  0  0  0  0  0
    4.5507   -0.9053   -1.9454 H   0  0  0  0  0  0  0  0  0  0  0  0
    3.3826    0.2686    0.6201 H   0  0  0  0  0  0  0  0  0  0  0  0
    4.7835   -2.3938    0.1362 H   0  0  0  0  0  0  0  0  0  0  0  0
    4.1314   -1.8339    1.6765 H   0  0  0  0  0  0  0  0  0  0  0  0
    5.7109    0.0556    1.7433 H   0  0  0  0  0  0  0  0  0  0  0  0
    6.5791   -1.4688    1.5576 H   0  0  0  0  0  0  0  0  0  0  0  0
    0.1897   -2.4059   -0.7502 H   0  0  0  0  0  0  0  0  0  0  0  0
   -0.2407   -1.2089   -1.9738 H   0  0  0  0  0  0  0  0  0  0  0  0
   -2.0673   -1.4302   -0.3031 H   0  0  0  0  0  0  0  0  0  0  0  0
   -0.9168   -1.0885    1.0120 H   0  0  0  0  0  0  0  0  0  0  0  0
   -0.2616    1.2109   -1.8746 H   0  0  0  0  0  0  0  0  0  0  0  0
   -0.3734    2.3658   -0.5483 H   0  0  0  0  0  0  0  0  0  0  0  0
    1.8936    1.3719   -0.6923 H   0  0  0  0  0  0  0  0  0  0  0  0
    1.1152    0.9614    0.8504 H   0  0  0  0  0  0  0  0  0  0  0  0
   -4.3853    2.0574   -0.6658 H   0  0  0  0  0  0  0  0  0  0  0  0
   -5.7936   -1.8461    2.0859 H   0  0  0  0  0  0  0  0  0  0  0  0
   -3.5295   -0.8621    2.3611 H   0  0  0  0  0  0  0  0  0  0  0  0
   -8.0086   -1.8494    0.9632 H   0  0  0  0  0  0  0  0  0  0  0  0
   -8.8818    1.0932   -2.0384 H   0  0  0  0  0  0  0  0  0  0  0  0
   -6.6211    2.0694   -1.7747 H   0  0  0  0  0  0  0  0  0  0  0  0
  1  2  2  0  0  0  0
  2 35  1  0  0  0  0
  3  2  1  0  0  0  0
  3 36  1  0  0  0  0
  4  3  2  0  0  0  0
  5  6  2  0  0  0  0
  5  4  1  0  0  0  0
  6  1  1  0  0  0  0
  7  4  1  0  0  0  0
  7 12  1  0  0  0  0
  8 39  1  0  0  0  0
  8  7  1  0  0  0  0
  9  8  1  0  0  0  0
  9 10  1  0  0  0  0
 10 43  1  0  0  0  0
 10 11  1  0  0  0  0
 11 12  1  0  0  0  0
 11 45  1  0  0  0  0
 12 47  1  0  0  0  0
 12 46  1  0  0  0  0
 13 10  1  0  0  0  0
 14 13  2  0  0  0  0
 15 13  1  0  0  0  0
 15 20  1  0  0  0  0
 16 48  1  0  0  0  0
 16 15  1  0  0  0  0
 16 17  1  0  0  0  0
 17 51  1  0  0  0  0
 18 17  1  0  0  0  0
 18 21  1  0  0  0  0
 19 53  1  0  0  0  0
 19 18  1  0  0  0  0
 19 20  1  0  0  0  0
 20 55  1  0  0  0  0
 21 22  2  0  0  0  0
 23 21  2  0  0  0  0
 24 21  1  0  0  0  0
 24 29  2  0  0  0  0
 25 24  1  0  0  0  0
 26 25  2  0  0  0  0
 26 27  1  0  0  0  0
 27 28  2  0  0  0  0
 28 29  1  0  0  0  0
 28 57  1  0  0  0  0
 29 58  1  0  0  0  0
 30 27  1  0  0  0  0
 30 59  1  0  0  0  0
 31 30  2  0  0  0  0
 32 33  2  0  0  0  0
 32 31  1  0  0  0  0
 33 26  1  0  0  0  0
 34 31  1  0  0  0  0
 37  5  1  0  0  0  0
 38  6  1  0  0  0  0
 40  8  1  0  0  0  0
 41  9  1  0  0  0  0
 42  9  1  0  0  0  0
 44 11  1  0  0  0  0
 49 16  1  0  0  0  0
 50 17  1  0  0  0  0
 52 19  1  0  0  0  0
 54 20  1  0  0  0  0
 56 25  1  0  0  0  0
 60 32  1  0  0  0  0
 61 33  1  0  0  0  0
M  END
