omegacsd_FIBREN_11.log
 OpenBabel09261812563D

 39 41  0  0  1  0  0  0  0  0999 V2000
   -2.4401   -1.1379    1.7807 N   0  0  0  0  0  0  0  0  0  0  0  0
   -1.1628   -0.8552    2.0457 C   0  0  0  0  0  0  0  0  0  0  0  0
   -0.2742   -0.2553    1.2305 N   0  0  0  0  0  0  0  0  0  0  0  0
   -0.6560    0.1183    0.0048 C   0  0  0  0  0  0  0  0  0  0  0  0
   -1.9873   -0.1313   -0.3784 C   0  0  2  0  0  0  0  0  0  0  0  0
   -2.7772   -0.7482    0.5607 C   0  0  0  0  0  0  0  0  0  0  0  0
   -4.0113   -0.9029    0.0064 O   0  0  0  0  0  0  0  0  0  0  0  0
   -3.8877   -0.3626   -1.2489 C   0  0  0  0  0  0  0  0  0  0  0  0
   -2.7211    0.1076   -1.5365 N   0  0  0  0  0  0  0  0  0  0  0  0
   -5.1033   -0.3916   -2.1013 C   0  0  0  0  0  0  0  0  0  0  0  0
    0.2045    0.7357   -0.8392 N   0  0  0  0  0  0  0  0  0  0  0  0
    1.6435    0.9174   -0.6382 C   0  0  1  0  0  0  0  0  0  0  0  0
    1.9286    1.8268    0.5628 C   0  0  0  0  0  0  0  0  0  0  0  0
    1.2844    3.1861    0.4365 C   0  0  0  0  0  0  0  0  0  0  0  0
    0.7489    3.7927    1.3304 O   0  0  0  0  0  0  0  0  0  0  0  0
    1.3969    3.6996   -0.8103 O   0  0  0  0  0  0  0  0  0  0  0  0
    2.4204   -0.3942   -0.6154 C   0  0  0  0  0  0  0  0  0  0  0  0
    2.8956   -0.9071   -1.8238 C   0  0  0  0  0  0  0  0  0  0  0  0
    3.6055   -2.1025   -1.8663 C   0  0  0  0  0  0  0  0  0  0  0  0
    3.8560   -2.8013   -0.6897 C   0  0  0  0  0  0  0  0  0  0  0  0
    3.3906   -2.2974    0.5210 C   0  0  0  0  0  0  0  0  0  0  0  0
    2.6764   -1.1036    0.5596 C   0  0  0  0  0  0  0  0  0  0  0  0
   -0.6378   -1.2507    3.3967 C   0  0  0  0  0  0  0  0  0  0  0  0
   -5.4276   -1.4226   -2.2737 H   0  0  0  0  0  0  0  0  0  0  0  0
   -4.8778    0.0817   -3.0577 H   0  0  0  0  0  0  0  0  0  0  0  0
   -5.9260    0.1423   -1.6159 H   0  0  0  0  0  0  0  0  0  0  0  0
   -0.1604    0.9154   -1.7628 H   0  0  0  0  0  0  0  0  0  0  0  0
    1.9668    1.4624   -1.5301 H   0  0  0  0  0  0  0  0  0  0  0  0
    3.0127    1.9739    0.6456 H   0  0  0  0  0  0  0  0  0  0  0  0
    1.5666    1.3855    1.4916 H   0  0  0  0  0  0  0  0  0  0  0  0
    0.9688    4.5709   -0.7747 H   0  0  0  0  0  0  0  0  0  0  0  0
    2.7104   -0.3601   -2.7474 H   0  0  0  0  0  0  0  0  0  0  0  0
    3.9688   -2.4837   -2.8174 H   0  0  0  0  0  0  0  0  0  0  0  0
    4.4130   -3.7344   -0.7159 H   0  0  0  0  0  0  0  0  0  0  0  0
    3.5823   -2.8377    1.4447 H   0  0  0  0  0  0  0  0  0  0  0  0
    2.2976   -0.7326    1.5067 H   0  0  0  0  0  0  0  0  0  0  0  0
   -1.4346   -1.6909    3.9982 H   0  0  0  0  0  0  0  0  0  0  0  0
    0.1747   -1.9764    3.2828 H   0  0  0  0  0  0  0  0  0  0  0  0
   -0.2273   -0.3764    3.9115 H   0  0  0  0  0  0  0  0  0  0  0  0
  1  2  2  0  0  0  0
  2 23  1  0  0  0  0
  3  2  1  0  0  0  0
  4  3  2  0  0  0  0
  5  9  1  6  0  0  0
  5  4  1  0  0  0  0
  5  6  1  0  0  0  0
  6  1  2  0  0  0  0
  7  6  1  0  0  0  0
  8  7  1  0  0  0  0
  9  8  2  0  0  0  0
 10 26  1  0  0  0  0
 10  8  1  0  0  0  0
 11 12  1  0  0  0  0
 11  4  1  0  0  0  0
 12 28  1  6  0  0  0
 12 17  1  0  0  0  0
 12 13  1  0  0  0  0
 13 29  1  0  0  0  0
 13 30  1  0  0  0  0
 14 13  1  0  0  0  0
 14 15  2  0  0  0  0
 16 31  1  0  0  0  0
 16 14  1  0  0  0  0
 17 22  2  0  0  0  0
 18 17  1  0  0  0  0
 19 18  2  0  0  0  0
 19 20  1  0  0  0  0
 20 21  2  0  0  0  0
 21 22  1  0  0  0  0
 21 35  1  0  0  0  0
 22 36  1  0  0  0  0
 23 39  1  0  0  0  0
 23 37  1  0  0  0  0
 24 10  1  0  0  0  0
 25 10  1  0  0  0  0
 27 11  1  0  0  0  0
 32 18  1  0  0  0  0
 33 19  1  0  0  0  0
 34 20  1  0  0  0  0
 38 23  1  0  0  0  0
M  RAD  1   5   2
M  END
