omegacsd_DIAVER_06.log
 OpenBabel09261812563D

 35 36  0  0  0  0  0  0  0  0999 V2000
    2.6183   -1.6743   -0.5601 N   0  0  0  0  0  0  0  0  0  0  0  0
    3.8668   -1.2800   -0.2943 C   0  0  0  0  0  0  0  0  0  0  0  0
    4.2575   -0.0683    0.1226 N   0  0  0  0  0  0  0  0  0  0  0  0
    3.2971    0.8439    0.2591 C   0  0  0  0  0  0  0  0  0  0  0  0
    1.9351    0.5663    0.0012 C   0  0  0  0  0  0  0  0  0  0  0  0
    1.6836   -0.7305   -0.4055 C   0  0  0  0  0  0  0  0  0  0  0  0
    0.8838    1.6449    0.1577 C   0  0  0  0  0  0  0  0  0  0  0  0
   -0.5283    1.1976   -0.1439 C   0  0  0  0  0  0  0  0  0  0  0  0
   -1.2664    0.5208    0.8362 C   0  0  0  0  0  0  0  0  0  0  0  0
   -2.5589    0.0772    0.5785 C   0  0  0  0  0  0  0  0  0  0  0  0
   -3.1286    0.3063   -0.6903 C   0  0  0  0  0  0  0  0  0  0  0  0
   -2.3956    0.9740   -1.6554 C   0  0  0  0  0  0  0  0  0  0  0  0
   -1.1014    1.4224   -1.3880 C   0  0  0  0  0  0  0  0  0  0  0  0
   -4.4154   -0.0749   -0.9629 O   0  0  0  0  0  0  0  0  0  0  0  0
   -4.5937   -1.4772   -1.1001 C   0  0  0  0  0  0  0  0  0  0  0  0
   -3.3485   -0.5725    1.4751 O   0  0  0  0  0  0  0  0  0  0  0  0
   -2.8217   -0.7999    2.7645 C   0  0  0  0  0  0  0  0  0  0  0  0
    3.7041    2.0980    0.6325 N   0  0  0  0  0  0  0  0  0  0  0  0
    4.8575   -2.2029   -0.4881 N   0  0  0  0  0  0  0  0  0  0  0  0
    0.6618   -1.0389   -0.6237 H   0  0  0  0  0  0  0  0  0  0  0  0
    0.9127    2.0377    1.1868 H   0  0  0  0  0  0  0  0  0  0  0  0
    1.1398    2.4919   -0.4946 H   0  0  0  0  0  0  0  0  0  0  0  0
   -0.8100    0.3489    1.8070 H   0  0  0  0  0  0  0  0  0  0  0  0
   -2.8637    1.1452   -2.6207 H   0  0  0  0  0  0  0  0  0  0  0  0
   -0.5392    1.9457   -2.1579 H   0  0  0  0  0  0  0  0  0  0  0  0
   -5.6458   -1.6305   -1.3495 H   0  0  0  0  0  0  0  0  0  0  0  0
   -4.3590   -2.0011   -0.1677 H   0  0  0  0  0  0  0  0  0  0  0  0
   -3.9668   -1.8710   -1.9112 H   0  0  0  0  0  0  0  0  0  0  0  0
   -1.9238   -1.4305    2.7277 H   0  0  0  0  0  0  0  0  0  0  0  0
   -2.5797    0.1442    3.2691 H   0  0  0  0  0  0  0  0  0  0  0  0
   -3.6041   -1.3169    3.3222 H   0  0  0  0  0  0  0  0  0  0  0  0
    4.6527    2.1539    0.9726 H   0  0  0  0  0  0  0  0  0  0  0  0
    3.0396    2.7145    1.0722 H   0  0  0  0  0  0  0  0  0  0  0  0
    4.5609   -3.1639   -0.5475 H   0  0  0  0  0  0  0  0  0  0  0  0
    5.7435   -2.0131   -0.0483 H   0  0  0  0  0  0  0  0  0  0  0  0
  1  6  1  0  0  0  0
  1  2  2  0  0  0  0
  2  3  1  0  0  0  0
  3  4  2  0  0  0  0
  4 18  1  0  0  0  0
  5  7  1  0  0  0  0
  5  4  1  0  0  0  0
  6  5  2  0  0  0  0
  7 21  1  0  0  0  0
  8  7  1  0  0  0  0
  8  9  2  0  0  0  0
  9 23  1  0  0  0  0
 10  9  1  0  0  0  0
 10 16  1  0  0  0  0
 11 10  2  0  0  0  0
 12 13  2  0  0  0  0
 12 11  1  0  0  0  0
 13  8  1  0  0  0  0
 14 11  1  0  0  0  0
 15 14  1  0  0  0  0
 15 27  1  0  0  0  0
 16 17  1  0  0  0  0
 17 30  1  0  0  0  0
 17 31  1  0  0  0  0
 18 32  1  0  0  0  0
 18 33  1  0  0  0  0
 19  2  1  0  0  0  0
 19 35  1  0  0  0  0
 20  6  1  0  0  0  0
 22  7  1  0  0  0  0
 24 12  1  0  0  0  0
 25 13  1  0  0  0  0
 26 15  1  0  0  0  0
 28 15  1  0  0  0  0
 29 17  1  0  0  0  0
 34 19  1  0  0  0  0
M  END
