omegapdb_1gs5_15.log
 OpenBabel09261812563D

 24 23  0  0  1  0  0  0  0  0999 V2000
    0.8211   -0.5291    0.3296 C   0  0  2  0  0  0  0  0  0  0  0  0
    1.7039   -1.7583    0.1976 C   0  0  0  0  0  0  0  0  0  0  0  0
    1.5155   -2.7848    0.7989 O   0  0  0  0  0  0  0  0  0  0  0  0
    2.7113   -1.6075   -0.6882 O   0  0  0  0  0  0  0  0  0  0  0  0
   -0.6139   -0.9059   -0.0713 C   0  0  0  0  0  0  0  0  0  0  0  0
   -1.6029    0.2113    0.2285 C   0  0  0  0  0  0  0  0  0  0  0  0
   -3.0143   -0.1547   -0.1891 C   0  0  0  0  0  0  0  0  0  0  0  0
   -3.3173   -1.1650   -0.7650 O   0  0  0  0  0  0  0  0  0  0  0  0
   -3.9591    0.7630    0.1217 O   0  0  0  0  0  0  0  0  0  0  0  0
    1.3485    0.6035   -0.4050 N   0  0  0  0  0  0  0  0  0  0  0  0
    1.3250    1.8609    0.1267 C   0  0  0  0  0  0  0  0  0  0  0  0
    0.7268    2.1185    1.1607 O   0  0  0  0  0  0  0  0  0  0  0  0
    2.0999    2.9080   -0.6453 C   0  0  0  0  0  0  0  0  0  0  0  0
    0.8249   -0.2531    1.3908 H   0  0  0  0  0  0  0  0  0  0  0  0
    3.1839   -2.4565   -0.7052 H   0  0  0  0  0  0  0  0  0  0  0  0
   -0.8991   -1.8137    0.4690 H   0  0  0  0  0  0  0  0  0  0  0  0
   -0.6492   -1.1482   -1.1396 H   0  0  0  0  0  0  0  0  0  0  0  0
   -1.3173    1.1336   -0.2931 H   0  0  0  0  0  0  0  0  0  0  0  0
   -1.5903    0.4621    1.2972 H   0  0  0  0  0  0  0  0  0  0  0  0
   -3.5542    1.5092    0.5860 H   0  0  0  0  0  0  0  0  0  0  0  0
    1.9357    0.4123   -1.2027 H   0  0  0  0  0  0  0  0  0  0  0  0
    1.5631    3.8565   -0.5868 H   0  0  0  0  0  0  0  0  0  0  0  0
    2.2561    2.6397   -1.6942 H   0  0  0  0  0  0  0  0  0  0  0  0
    3.0769    3.0467   -0.1709 H   0  0  0  0  0  0  0  0  0  0  0  0
  1 14  1  1  0  0  0
  2  1  1  0  0  0  0
  2  3  2  0  0  0  0
  4  2  1  0  0  0  0
  5  6  1  0  0  0  0
  5  1  1  0  0  0  0
  5 16  1  0  0  0  0
  6 19  1  0  0  0  0
  7  9  1  0  0  0  0
  7  6  1  0  0  0  0
  8  7  2  0  0  0  0
  9 20  1  0  0  0  0
 10 11  1  0  0  0  0
 10  1  1  0  0  0  0
 11 12  2  0  0  0  0
 13 22  1  0  0  0  0
 13 24  1  0  0  0  0
 13 11  1  0  0  0  0
 15  4  1  0  0  0  0
 17  5  1  0  0  0  0
 18  6  1  0  0  0  0
 21 10  1  0  0  0  0
 23 13  1  0  0  0  0
M  END
