omegacsd_CDBMPI10_12.log
 OpenBabel09261812563D

 46 48  0  0  1  0  0  0  0  0999 V2000
   -2.5111    2.5283   -0.0530 O   0  0  0  0  0  0  0  0  0  0  0  0
   -2.4394    1.3117   -0.1409 C   0  0  0  0  0  0  0  0  0  0  0  0
   -1.2278    0.6667   -0.3330 N   0  0  0  0  0  0  0  0  0  0  0  0
   -0.9468   -0.4545   -1.2528 C   0  0  1  0  0  0  0  0  0  0  0  0
    0.1592   -1.3141   -0.6437 C   0  0  0  0  0  0  0  0  0  0  0  0
    1.3402   -0.5128   -0.3427 N   0  0  0  0  0  0  0  0  0  0  0  0
    1.0949    0.6977    0.4555 C   0  0  1  0  0  0  0  0  0  0  0  0
   -0.0381    1.4985   -0.1872 C   0  0  0  0  0  0  0  0  0  0  0  0
    0.8135    0.3664    1.9228 C   0  0  0  0  0  0  0  0  0  0  0  0
    2.5393   -1.1904   -0.3187 C   0  0  0  0  0  0  0  0  0  0  0  0
    2.6059   -2.3941   -0.5221 O   0  0  0  0  0  0  0  0  0  0  0  0
    3.7980   -0.4002   -0.0858 C   0  0  0  0  0  0  0  0  0  0  0  0
    4.0728    0.7851   -0.7706 C   0  0  0  0  0  0  0  0  0  0  0  0
    5.2892    1.4337   -0.5850 C   0  0  0  0  0  0  0  0  0  0  0  0
    6.2330    0.9059    0.2920 C   0  0  0  0  0  0  0  0  0  0  0  0
    5.9676   -0.2829    0.9668 C   0  0  0  0  0  0  0  0  0  0  0  0
    4.7596   -0.9413    0.7671 C   0  0  0  0  0  0  0  0  0  0  0  0
   -2.1111   -1.3288   -1.7002 C   0  0  0  0  0  0  0  0  0  0  0  0
   -3.6659    0.4864    0.1179 C   0  0  0  0  0  0  0  0  0  0  0  0
   -3.6335   -0.6206    0.9659 C   0  0  0  0  0  0  0  0  0  0  0  0
   -4.8090   -1.2960    1.2788 C   0  0  0  0  0  0  0  0  0  0  0  0
   -6.0193   -0.8721    0.7372 C   0  0  0  0  0  0  0  0  0  0  0  0
   -6.0569    0.2424   -0.0980 C   0  0  0  0  0  0  0  0  0  0  0  0
   -4.8860    0.9307   -0.3918 C   0  0  0  0  0  0  0  0  0  0  0  0
   -0.5278    0.0076   -2.1625 H   0  0  0  0  0  0  0  0  0  0  0  0
    0.4623   -2.0927   -1.3459 H   0  0  0  0  0  0  0  0  0  0  0  0
   -0.2217   -1.8196    0.2571 H   0  0  0  0  0  0  0  0  0  0  0  0
    1.9928    1.3170    0.4115 H   0  0  0  0  0  0  0  0  0  0  0  0
   -0.2916    2.3596    0.4321 H   0  0  0  0  0  0  0  0  0  0  0  0
    0.2864    1.8774   -1.1686 H   0  0  0  0  0  0  0  0  0  0  0  0
    0.6957    1.2885    2.5020 H   0  0  0  0  0  0  0  0  0  0  0  0
    1.6457   -0.2024    2.3515 H   0  0  0  0  0  0  0  0  0  0  0  0
   -0.1040   -0.2195    2.0359 H   0  0  0  0  0  0  0  0  0  0  0  0
    3.3392    1.1872   -1.4664 H   0  0  0  0  0  0  0  0  0  0  0  0
    5.5018    2.3507   -1.1283 H   0  0  0  0  0  0  0  0  0  0  0  0
    7.1810    1.4163    0.4415 H   0  0  0  0  0  0  0  0  0  0  0  0
    6.7081   -0.7027    1.6425 H   0  0  0  0  0  0  0  0  0  0  0  0
    4.5521   -1.8873    1.2599 H   0  0  0  0  0  0  0  0  0  0  0  0
   -2.5084   -1.9513   -0.8952 H   0  0  0  0  0  0  0  0  0  0  0  0
   -2.9346   -0.7422   -2.1151 H   0  0  0  0  0  0  0  0  0  0  0  0
   -1.7396   -1.9913   -2.4891 H   0  0  0  0  0  0  0  0  0  0  0  0
   -2.6852   -0.9424    1.3909 H   0  0  0  0  0  0  0  0  0  0  0  0
   -4.7808   -2.1510    1.9493 H   0  0  0  0  0  0  0  0  0  0  0  0
   -6.9371   -1.4036    0.9756 H   0  0  0  0  0  0  0  0  0  0  0  0
   -7.0031    0.5824   -0.5108 H   0  0  0  0  0  0  0  0  0  0  0  0
   -4.9029    1.8227   -1.0122 H   0  0  0  0  0  0  0  0  0  0  0  0
  2  1  2  0  0  0  0
  2 19  1  0  0  0  0
  3  8  1  0  0  0  0
  3  2  1  0  0  0  0
  4 25  1  6  0  0  0
  4  5  1  0  0  0  0
  4  3  1  0  0  0  0
  5  6  1  0  0  0  0
  5 27  1  0  0  0  0
  6 10  1  0  0  0  0
  6  7  1  0  0  0  0
  7 28  1  6  0  0  0
  7  9  1  0  0  0  0
  8 29  1  0  0  0  0
  8  7  1  0  0  0  0
  9 33  1  0  0  0  0
  9 32  1  0  0  0  0
  9 31  1  0  0  0  0
 10 12  1  0  0  0  0
 11 10  2  0  0  0  0
 12 17  2  0  0  0  0
 13 14  2  0  0  0  0
 13 12  1  0  0  0  0
 14 15  1  0  0  0  0
 15 36  1  0  0  0  0
 15 16  2  0  0  0  0
 16 37  1  0  0  0  0
 17 16  1  0  0  0  0
 17 38  1  0  0  0  0
 18  4  1  0  0  0  0
 18 39  1  0  0  0  0
 19 20  2  0  0  0  0
 20 21  1  0  0  0  0
 20 42  1  0  0  0  0
 21 43  1  0  0  0  0
 22 44  1  0  0  0  0
 22 21  2  0  0  0  0
 23 22  1  0  0  0  0
 24 23  2  0  0  0  0
 24 19  1  0  0  0  0
 26  5  1  0  0  0  0
 30  8  1  0  0  0  0
 34 13  1  0  0  0  0
 35 14  1  0  0  0  0
 40 18  1  0  0  0  0
 41 18  1  0  0  0  0
 45 23  1  0  0  0  0
 46 24  1  0  0  0  0
M  END
