omegapdb_2byh_16.log
 OpenBabel09261812563D

 40 42  0  0  0  0  0  0  0  0999 V2000
    6.7653   -2.4664   -0.7558 O   0  0  0  0  0  0  0  0  0  0  0  0
    6.6973   -1.3588   -0.2576 C   0  0  0  0  0  0  0  0  0  0  0  0
    7.9347   -0.6847    0.3001 C   0  0  0  0  0  0  0  0  0  0  0  0
    5.3918   -0.6346   -0.1783 C   0  0  0  0  0  0  0  0  0  0  0  0
    5.2603    0.6377    0.3833 C   0  0  0  0  0  0  0  0  0  0  0  0
    4.0241    1.2607    0.4329 C   0  0  0  0  0  0  0  0  0  0  0  0
    2.8852    0.6250   -0.0780 C   0  0  0  0  0  0  0  0  0  0  0  0
    3.0057   -0.6506   -0.6454 C   0  0  0  0  0  0  0  0  0  0  0  0
    4.2507   -1.2584   -0.6878 C   0  0  0  0  0  0  0  0  0  0  0  0
    1.6727    1.3252   -0.0008 N   0  0  0  0  0  0  0  0  0  0  0  0
    0.4002    0.8753   -0.2948 C   0  0  0  0  0  0  0  0  0  0  0  0
    0.1521   -0.2567   -0.6712 O   0  0  0  0  0  0  0  0  0  0  0  0
   -0.6432    1.9108   -0.1170 C   0  0  0  0  0  0  0  0  0  0  0  0
   -0.5397    3.3202   -0.2058 C   0  0  0  0  0  0  0  0  0  0  0  0
   -1.7098    3.9144   -0.0513 N   0  0  0  0  0  0  0  0  0  0  0  0
   -2.5661    2.8995    0.1381 N   0  0  0  0  0  0  0  0  0  0  0  0
   -1.9926    1.6756    0.1054 C   0  0  0  0  0  0  0  0  0  0  0  0
   -2.7883    0.4499    0.2678 C   0  0  0  0  0  0  0  0  0  0  0  0
   -3.9623    0.2727   -0.4637 C   0  0  0  0  0  0  0  0  0  0  0  0
   -4.7308   -0.8742   -0.3435 C   0  0  0  0  0  0  0  0  0  0  0  0
   -6.1787   -1.0611   -1.2761 Cl  0  0  0  0  0  0  0  0  0  0  0  0
   -4.3228   -1.8929    0.5222 C   0  0  0  0  0  0  0  0  0  0  0  0
   -5.0861   -3.0036    0.6090 O   0  0  0  0  0  0  0  0  0  0  0  0
   -3.1564   -1.7245    1.2674 C   0  0  0  0  0  0  0  0  0  0  0  0
   -2.3956   -0.5654    1.1507 C   0  0  0  0  0  0  0  0  0  0  0  0
   -1.2890   -0.3570    1.9028 O   0  0  0  0  0  0  0  0  0  0  0  0
    8.1235    0.2685   -0.2061 H   0  0  0  0  0  0  0  0  0  0  0  0
    8.7883   -1.3483    0.1547 H   0  0  0  0  0  0  0  0  0  0  0  0
    7.8150   -0.4746    1.3689 H   0  0  0  0  0  0  0  0  0  0  0  0
    6.1256    1.1548    0.7901 H   0  0  0  0  0  0  0  0  0  0  0  0
    3.9354    2.2516    0.8747 H   0  0  0  0  0  0  0  0  0  0  0  0
    2.1273   -1.1450   -1.0374 H   0  0  0  0  0  0  0  0  0  0  0  0
    4.3625   -2.2461   -1.1260 H   0  0  0  0  0  0  0  0  0  0  0  0
    1.7288    2.2374    0.4283 H   0  0  0  0  0  0  0  0  0  0  0  0
    0.3370    3.9229   -0.4143 H   0  0  0  0  0  0  0  0  0  0  0  0
   -3.5351    3.1035    0.3328 H   0  0  0  0  0  0  0  0  0  0  0  0
   -4.2729    1.0339   -1.1746 H   0  0  0  0  0  0  0  0  0  0  0  0
   -4.6731   -3.6294    1.2175 H   0  0  0  0  0  0  0  0  0  0  0  0
   -2.8470   -2.5046    1.9619 H   0  0  0  0  0  0  0  0  0  0  0  0
   -1.0027   -1.1908    2.2963 H   0  0  0  0  0  0  0  0  0  0  0  0
  1  2  2  0  0  0  0
  2  4  1  0  0  0  0
  2  3  1  0  0  0  0
  3 29  1  0  0  0  0
  4  5  2  0  0  0  0
  5  6  1  0  0  0  0
  5 30  1  0  0  0  0
  6 31  1  0  0  0  0
  7 10  1  0  0  0  0
  7  6  2  0  0  0  0
  8  7  1  0  0  0  0
  9  8  2  0  0  0  0
  9  4  1  0  0  0  0
 10 34  1  0  0  0  0
 11 13  1  0  0  0  0
 11 10  1  0  0  0  0
 12 11  2  0  0  0  0
 13 17  2  0  0  0  0
 14 13  1  0  0  0  0
 14 15  2  0  0  0  0
 15 16  1  0  0  0  0
 16 36  1  0  0  0  0
 17 16  1  0  0  0  0
 17 18  1  0  0  0  0
 18 25  2  0  0  0  0
 19 20  2  0  0  0  0
 19 18  1  0  0  0  0
 20 22  1  0  0  0  0
 21 20  1  0  0  0  0
 22 23  1  0  0  0  0
 22 24  2  0  0  0  0
 23 38  1  0  0  0  0
 24 39  1  0  0  0  0
 25 24  1  0  0  0  0
 25 26  1  0  0  0  0
 26 40  1  0  0  0  0
 27  3  1  0  0  0  0
 28  3  1  0  0  0  0
 32  8  1  0  0  0  0
 33  9  1  0  0  0  0
 35 14  1  0  0  0  0
 37 19  1  0  0  0  0
M  END
