omegapdb_1v2k_00.log
 OpenBabel09261812563D

 61 65  0  0  0  0  0  0  0  0999 V2000
   -8.8643    2.9753    0.7898 N   0  0  0  0  0  0  0  0  0  0  0  0
   -8.1921    2.2761    1.7055 C   0  0  0  0  0  0  0  0  0  0  0  0
   -7.3262    1.2277    1.4337 C   0  0  0  0  0  0  0  0  0  0  0  0
   -7.1134    0.8227    0.1013 C   0  0  0  0  0  0  0  0  0  0  0  0
   -7.8172    1.5642   -0.8681 C   0  0  0  0  0  0  0  0  0  0  0  0
   -8.6549    2.5947   -0.4725 C   0  0  0  0  0  0  0  0  0  0  0  0
   -6.3037   -0.2536   -0.2305 N   0  0  0  0  0  0  0  0  0  0  0  0
   -5.7495   -0.3682   -1.5779 C   0  0  0  0  0  0  0  0  0  0  0  0
   -4.4848    0.4851   -1.7267 C   0  0  0  0  0  0  0  0  0  0  0  0
   -3.4333    0.1898   -0.6410 C   0  0  0  0  0  0  0  0  0  0  0  0
   -4.0867    0.1371    0.7605 C   0  0  0  0  0  0  0  0  0  0  0  0
   -5.3362   -0.7493    0.7409 C   0  0  0  0  0  0  0  0  0  0  0  0
   -2.7019   -1.1246   -0.9293 C   0  0  0  0  0  0  0  0  0  0  0  0
   -3.1713   -1.9555   -1.6988 O   0  0  0  0  0  0  0  0  0  0  0  0
   -1.5290   -1.3667   -0.2604 N   0  0  0  0  0  0  0  0  0  0  0  0
   -0.7736   -0.4294    0.5595 C   0  0  0  0  0  0  0  0  0  0  0  0
    0.5814   -0.1414   -0.0953 C   0  0  0  0  0  0  0  0  0  0  0  0
    1.3204   -1.3695   -0.4071 N   0  0  0  0  0  0  0  0  0  0  0  0
    0.5228   -2.3479   -1.1620 C   0  0  0  0  0  0  0  0  0  0  0  0
   -0.8235   -2.6212   -0.4967 C   0  0  0  0  0  0  0  0  0  0  0  0
    2.2751   -1.9680    0.8277 S   0  0  0  0  0  0  0  0  0  0  0  0
    2.6934   -3.2969    0.4115 O   0  0  0  0  0  0  0  0  0  0  0  0
    1.6374   -1.7807    2.1280 O   0  0  0  0  0  0  0  0  0  0  0  0
    3.6628   -0.8548    0.7754 C   0  0  0  0  0  0  0  0  0  0  0  0
    4.3080   -0.6322   -0.4122 C   0  0  0  0  0  0  0  0  0  0  0  0
    5.4496    0.2050   -0.4471 C   0  0  0  0  0  0  0  0  0  0  0  0
    5.9103    0.7957    0.7588 C   0  0  0  0  0  0  0  0  0  0  0  0
    5.2146    0.5345    1.9696 C   0  0  0  0  0  0  0  0  0  0  0  0
    4.1111   -0.2751    1.9854 C   0  0  0  0  0  0  0  0  0  0  0  0
    7.0552    1.6364    0.7248 C   0  0  0  0  0  0  0  0  0  0  0  0
    7.6948    1.8637   -0.4612 C   0  0  0  0  0  0  0  0  0  0  0  0
    7.2460    1.2803   -1.6725 C   0  0  0  0  0  0  0  0  0  0  0  0
    6.1464    0.4698   -1.6582 C   0  0  0  0  0  0  0  0  0  0  0  0
    9.0955    2.8902   -0.5092 Cl  0  0  0  0  0  0  0  0  0  0  0  0
   -8.3493    2.5740    2.7420 H   0  0  0  0  0  0  0  0  0  0  0  0
   -6.8330    0.7409    2.2668 H   0  0  0  0  0  0  0  0  0  0  0  0
   -7.7316    1.3490   -1.9266 H   0  0  0  0  0  0  0  0  0  0  0  0
   -9.1957    3.1560   -1.2342 H   0  0  0  0  0  0  0  0  0  0  0  0
   -6.4960   -0.0904   -2.3229 H   0  0  0  0  0  0  0  0  0  0  0  0
   -5.5021   -1.4182   -1.7495 H   0  0  0  0  0  0  0  0  0  0  0  0
   -4.7641    1.5446   -1.6520 H   0  0  0  0  0  0  0  0  0  0  0  0
   -4.0480    0.3252   -2.7177 H   0  0  0  0  0  0  0  0  0  0  0  0
   -2.7040    1.0084   -0.6582 H   0  0  0  0  0  0  0  0  0  0  0  0
   -3.3758   -0.2299    1.5110 H   0  0  0  0  0  0  0  0  0  0  0  0
   -4.3798    1.1522    1.0579 H   0  0  0  0  0  0  0  0  0  0  0  0
   -5.7883   -0.8262    1.7311 H   0  0  0  0  0  0  0  0  0  0  0  0
   -5.0697   -1.7702    0.4418 H   0  0  0  0  0  0  0  0  0  0  0  0
   -0.6067   -0.8712    1.5496 H   0  0  0  0  0  0  0  0  0  0  0  0
   -1.3217    0.5034    0.6940 H   0  0  0  0  0  0  0  0  0  0  0  0
    0.4294    0.3890   -1.0438 H   0  0  0  0  0  0  0  0  0  0  0  0
    1.1935    0.4970    0.5495 H   0  0  0  0  0  0  0  0  0  0  0  0
    0.3613   -1.9192   -2.1585 H   0  0  0  0  0  0  0  0  0  0  0  0
    1.1062   -3.2640   -1.2684 H   0  0  0  0  0  0  0  0  0  0  0  0
   -0.6686   -3.1308    0.4642 H   0  0  0  0  0  0  0  0  0  0  0  0
   -1.4522   -3.2452   -1.1325 H   0  0  0  0  0  0  0  0  0  0  0  0
    3.9425   -1.0865   -1.3300 H   0  0  0  0  0  0  0  0  0  0  0  0
    5.5724    0.9898    2.8899 H   0  0  0  0  0  0  0  0  0  0  0  0
    3.5680   -0.4813    2.9022 H   0  0  0  0  0  0  0  0  0  0  0  0
    7.4170    2.0930    1.6417 H   0  0  0  0  0  0  0  0  0  0  0  0
    7.7829    1.4858   -2.5930 H   0  0  0  0  0  0  0  0  0  0  0  0
    5.7918    0.0143   -2.5796 H   0  0  0  0  0  0  0  0  0  0  0  0
  1  2  2  0  0  0  0
  2 35  1  0  0  0  0
  3  2  1  0  0  0  0
  3 36  1  0  0  0  0
  4  3  2  0  0  0  0
  5  6  2  0  0  0  0
  5  4  1  0  0  0  0
  6  1  1  0  0  0  0
  7  4  1  0  0  0  0
  7 12  1  0  0  0  0
  8  7  1  0  0  0  0
  9 41  1  0  0  0  0
  9  8  1  0  0  0  0
  9 10  1  0  0  0  0
 10 11  1  0  0  0  0
 11 45  1  0  0  0  0
 11 44  1  0  0  0  0
 12 11  1  0  0  0  0
 12 46  1  0  0  0  0
 13 10  1  0  0  0  0
 13 15  1  0  0  0  0
 14 13  2  0  0  0  0
 15 16  1  0  0  0  0
 16 49  1  0  0  0  0
 16 48  1  0  0  0  0
 17 51  1  0  0  0  0
 17 16  1  0  0  0  0
 18 17  1  0  0  0  0
 18 21  1  0  0  0  0
 19 20  1  0  0  0  0
 19 18  1  0  0  0  0
 20 15  1  0  0  0  0
 20 54  1  0  0  0  0
 21 23  2  0  0  0  0
 22 21  2  0  0  0  0
 24 21  1  0  0  0  0
 24 29  2  0  0  0  0
 25 24  1  0  0  0  0
 26 25  2  0  0  0  0
 26 27  1  0  0  0  0
 27 28  2  0  0  0  0
 28 29  1  0  0  0  0
 28 57  1  0  0  0  0
 29 58  1  0  0  0  0
 30 27  1  0  0  0  0
 30 59  1  0  0  0  0
 31 30  2  0  0  0  0
 32 33  2  0  0  0  0
 32 31  1  0  0  0  0
 33 26  1  0  0  0  0
 34 31  1  0  0  0  0
 37  5  1  0  0  0  0
 38  6  1  0  0  0  0
 39  8  1  0  0  0  0
 40  8  1  0  0  0  0
 42  9  1  0  0  0  0
 43 10  1  0  0  0  0
 47 12  1  0  0  0  0
 50 17  1  0  0  0  0
 52 19  1  0  0  0  0
 53 19  1  0  0  0  0
 55 20  1  0  0  0  0
 56 25  1  0  0  0  0
 60 32  1  0  0  0  0
 61 33  1  0  0  0  0
M  END
