omegapdb_1m5f_10.log
 OpenBabel09261812563D

 25 25  0  0  1  0  0  0  0  0999 V2000
   -2.9393   -2.3809    0.3194 O   0  0  0  0  0  0  0  0  0  0  0  0
   -1.7469   -1.8419    0.0399 C   0  0  0  0  0  0  0  0  0  0  0  0
   -0.7532   -2.5070   -0.1091 O   0  0  0  0  0  0  0  0  0  0  0  0
   -1.7408   -0.3525   -0.0588 C   0  0  0  0  0  0  0  0  0  0  0  0
   -2.8345    0.3037    0.2393 N   0  0  0  0  0  0  0  0  0  0  0  0
   -2.5260    1.6210    0.0987 O   0  0  0  0  0  0  0  0  0  0  0  0
   -1.2373    1.7446   -0.2834 C   0  0  0  0  0  0  0  0  0  0  0  0
   -0.6734    0.5121   -0.4175 C   0  0  0  0  0  0  0  0  0  0  0  0
    0.7303    0.1575   -0.7914 C   0  0  0  0  0  0  0  0  0  0  0  0
    1.6294    0.0275    0.4551 C   0  0  2  0  0  0  0  0  0  0  0  0
    1.6899    1.2872    1.1780 N   0  0  0  0  0  0  0  0  0  0  0  0
    3.0113   -0.4470    0.0215 C   0  0  0  0  0  0  0  0  0  0  0  0
    4.0110    0.2326    0.0620 O   0  0  0  0  0  0  0  0  0  0  0  0
    3.0004   -1.7025   -0.4510 O   0  0  0  0  0  0  0  0  0  0  0  0
   -0.7111    3.1261   -0.4330 C   0  0  0  0  0  0  0  0  0  0  0  0
   -3.5932   -1.6657    0.4173 H   0  0  0  0  0  0  0  0  0  0  0  0
    0.7419   -0.7874   -1.3404 H   0  0  0  0  0  0  0  0  0  0  0  0
    1.1467    0.9369   -1.4433 H   0  0  0  0  0  0  0  0  0  0  0  0
    1.1925   -0.7499    1.0920 H   0  0  0  0  0  0  0  0  0  0  0  0
    2.4564    1.8333    0.7882 H   0  0  0  0  0  0  0  0  0  0  0  0
    1.9493    1.1144    2.1446 H   0  0  0  0  0  0  0  0  0  0  0  0
    3.9103   -1.9039   -0.7265 H   0  0  0  0  0  0  0  0  0  0  0  0
    0.0433    3.1582   -1.2239 H   0  0  0  0  0  0  0  0  0  0  0  0
   -0.2309    3.4423    0.4980 H   0  0  0  0  0  0  0  0  0  0  0  0
   -1.5168    3.8215   -0.6807 H   0  0  0  0  0  0  0  0  0  0  0  0
  1 16  1  0  0  0  0
  2  1  1  0  0  0  0
  3  2  2  0  0  0  0
  4  2  1  0  0  0  0
  4  5  2  0  0  0  0
  6  5  1  0  0  0  0
  7  6  1  0  0  0  0
  8  7  2  0  0  0  0
  8  4  1  0  0  0  0
  9  8  1  0  0  0  0
  9 10  1  0  0  0  0
 10 19  1  1  0  0  0
 10 11  1  0  0  0  0
 11 21  1  0  0  0  0
 12 13  2  0  0  0  0
 12 10  1  0  0  0  0
 14 12  1  0  0  0  0
 15  7  1  0  0  0  0
 15 24  1  0  0  0  0
 17  9  1  0  0  0  0
 18  9  1  0  0  0  0
 20 11  1  0  0  0  0
 22 14  1  0  0  0  0
 23 15  1  0  0  0  0
 25 15  1  0  0  0  0
M  END
