omegapdb_1xom_23.log
 OpenBabel09261812563D

 50 52  0  0  1  0  0  0  0  0999 V2000
    6.1924   -0.9857   -0.6242 O   0  0  0  0  0  0  0  0  0  0  0  0
    5.0196   -1.3863   -0.0817 C   0  0  0  0  0  0  0  0  0  0  0  0
    5.0173   -2.0160    0.9422 O   0  0  0  0  0  0  0  0  0  0  0  0
    3.7710   -0.9809   -0.8613 C   0  0  1  0  0  0  0  0  0  0  0  0
    2.4998   -1.4184   -0.1197 C   0  0  0  0  0  0  0  0  0  0  0  0
    2.0638   -0.3751    0.9086 C   0  0  0  0  0  0  0  0  0  0  0  0
    1.7090    1.0044    0.2584 C   0  0  2  0  0  0  0  0  0  0  0  0
    2.3559    1.1045   -1.1530 C   0  0  0  0  0  0  0  0  0  0  0  0
    3.7767    0.5462   -1.1495 C   0  0  0  0  0  0  0  0  0  0  0  0
    2.3220    2.0612    1.0893 C   0  0  0  0  0  0  0  0  0  0  0  0
    2.8381    2.8877    1.7139 N   0  0  0  0  0  0  0  0  0  0  0  0
    0.2029    1.2570    0.1408 C   0  0  0  0  0  0  0  0  0  0  0  0
   -0.3453    2.5213    0.3109 C   0  0  0  0  0  0  0  0  0  0  0  0
   -1.7119    2.7444    0.1321 C   0  0  0  0  0  0  0  0  0  0  0  0
   -2.5576    1.7013   -0.2267 C   0  0  0  0  0  0  0  0  0  0  0  0
   -3.8936    1.8224   -0.4413 O   0  0  0  0  0  0  0  0  0  0  0  0
   -4.4623    3.1085   -0.3095 C   0  0  0  0  0  0  0  0  0  0  0  0
   -2.0151    0.4103   -0.3921 C   0  0  0  0  0  0  0  0  0  0  0  0
   -0.6566    0.2095   -0.2123 C   0  0  0  0  0  0  0  0  0  0  0  0
   -2.7933   -0.6380   -0.7936 O   0  0  0  0  0  0  0  0  0  0  0  0
   -3.7624   -1.1165    0.1640 C   0  0  0  0  0  0  0  0  0  0  0  0
   -4.5954   -2.1825   -0.5657 C   0  0  0  0  0  0  0  0  0  0  0  0
   -4.0467   -3.5562   -0.1076 C   0  0  0  0  0  0  0  0  0  0  0  0
   -2.7615   -3.2365    0.6719 C   0  0  0  0  0  0  0  0  0  0  0  0
   -3.0658   -1.8731    1.2966 C   0  0  0  0  0  0  0  0  0  0  0  0
    6.0315   -0.4859   -1.4367 H   0  0  0  0  0  0  0  0  0  0  0  0
    3.8176   -1.5184   -1.8193 H   0  0  0  0  0  0  0  0  0  0  0  0
    2.6961   -2.3650    0.3902 H   0  0  0  0  0  0  0  0  0  0  0  0
    1.7022   -1.6012   -0.8489 H   0  0  0  0  0  0  0  0  0  0  0  0
    2.8838   -0.2458    1.6235 H   0  0  0  0  0  0  0  0  0  0  0  0
    1.2059   -0.7323    1.4859 H   0  0  0  0  0  0  0  0  0  0  0  0
    1.7284    0.5458   -1.8567 H   0  0  0  0  0  0  0  0  0  0  0  0
    2.3453    2.1493   -1.4801 H   0  0  0  0  0  0  0  0  0  0  0  0
    4.2543    0.7591   -2.1141 H   0  0  0  0  0  0  0  0  0  0  0  0
    4.3604    1.0804   -0.3874 H   0  0  0  0  0  0  0  0  0  0  0  0
    0.2878    3.3570    0.5984 H   0  0  0  0  0  0  0  0  0  0  0  0
   -2.1022    3.7468    0.2737 H   0  0  0  0  0  0  0  0  0  0  0  0
   -4.0207    3.8152   -1.0235 H   0  0  0  0  0  0  0  0  0  0  0  0
   -4.3416    3.4998    0.7088 H   0  0  0  0  0  0  0  0  0  0  0  0
   -5.5245    2.9905   -0.5277 H   0  0  0  0  0  0  0  0  0  0  0  0
   -0.2904   -0.8029   -0.3623 H   0  0  0  0  0  0  0  0  0  0  0  0
   -4.3597   -0.2675    0.5092 H   0  0  0  0  0  0  0  0  0  0  0  0
   -4.4906   -2.0264   -1.6430 H   0  0  0  0  0  0  0  0  0  0  0  0
   -5.6573   -2.0736   -0.3231 H   0  0  0  0  0  0  0  0  0  0  0  0
   -3.8714   -4.2376   -0.9457 H   0  0  0  0  0  0  0  0  0  0  0  0
   -4.7674   -4.0463    0.5578 H   0  0  0  0  0  0  0  0  0  0  0  0
   -2.5053   -4.0039    1.4090 H   0  0  0  0  0  0  0  0  0  0  0  0
   -1.9156   -3.1399   -0.0194 H   0  0  0  0  0  0  0  0  0  0  0  0
   -3.7714   -1.9889    2.1304 H   0  0  0  0  0  0  0  0  0  0  0  0
   -2.1862   -1.3430    1.6775 H   0  0  0  0  0  0  0  0  0  0  0  0
  1  2  1  0  0  0  0
  2  3  2  0  0  0  0
  4 27  1  6  0  0  0
  4  5  1  0  0  0  0
  4  2  1  0  0  0  0
  5 28  1  0  0  0  0
  5  6  1  0  0  0  0
  6 31  1  0  0  0  0
  6 30  1  0  0  0  0
  7  6  1  0  0  0  0
  7 10  1  1  0  0  0
  8  9  1  0  0  0  0
  8  7  1  0  0  0  0
  9  4  1  0  0  0  0
  9 35  1  0  0  0  0
 10 11  3  0  0  0  0
 12  7  1  0  0  0  0
 12 13  1  0  0  0  0
 13 36  1  0  0  0  0
 14 37  1  0  0  0  0
 14 13  2  0  0  0  0
 15 14  1  0  0  0  0
 16 17  1  0  0  0  0
 16 15  1  0  0  0  0
 17 39  1  0  0  0  0
 18 15  2  0  0  0  0
 18 19  1  0  0  0  0
 19 12  2  0  0  0  0
 20 18  1  0  0  0  0
 20 21  1  0  0  0  0
 21 42  1  0  0  0  0
 21 25  1  0  0  0  0
 22 44  1  0  0  0  0
 22 23  1  0  0  0  0
 22 21  1  0  0  0  0
 23 46  1  0  0  0  0
 23 24  1  0  0  0  0
 24 25  1  0  0  0  0
 24 47  1  0  0  0  0
 25 50  1  0  0  0  0
 25 49  1  0  0  0  0
 26  1  1  0  0  0  0
 29  5  1  0  0  0  0
 32  8  1  0  0  0  0
 33  8  1  0  0  0  0
 34  9  1  0  0  0  0
 38 17  1  0  0  0  0
 40 17  1  0  0  0  0
 41 19  1  0  0  0  0
 43 22  1  0  0  0  0
 45 23  1  0  0  0  0
 48 24  1  0  0  0  0
M  END
