omegapdb_1gs5_02.log
 OpenBabel09261812563D

 24 23  0  0  1  0  0  0  0  0999 V2000
   -0.6076    0.5837    0.7965 C   0  0  2  0  0  0  0  0  0  0  0  0
   -1.1383    1.4446   -0.3462 C   0  0  0  0  0  0  0  0  0  0  0  0
   -0.9197    1.2636   -1.5201 O   0  0  0  0  0  0  0  0  0  0  0  0
   -1.8053    2.5145    0.1182 O   0  0  0  0  0  0  0  0  0  0  0  0
    0.8088    1.0514    1.1708 C   0  0  0  0  0  0  0  0  0  0  0  0
    1.8519    0.9834    0.0465 C   0  0  0  0  0  0  0  0  0  0  0  0
    2.5804   -0.3319   -0.0524 C   0  0  0  0  0  0  0  0  0  0  0  0
    2.2071   -1.3989    0.3917 O   0  0  0  0  0  0  0  0  0  0  0  0
    3.7352   -0.2144   -0.7226 O   0  0  0  0  0  0  0  0  0  0  0  0
   -0.6234   -0.8085    0.4323 N   0  0  0  0  0  0  0  0  0  0  0  0
   -1.8020   -1.3821    0.0725 C   0  0  0  0  0  0  0  0  0  0  0  0
   -2.8429   -0.7393    0.0595 O   0  0  0  0  0  0  0  0  0  0  0  0
   -1.7383   -2.8419   -0.3195 C   0  0  0  0  0  0  0  0  0  0  0  0
   -1.2696    0.7539    1.6532 H   0  0  0  0  0  0  0  0  0  0  0  0
   -2.0824    3.0203   -0.6635 H   0  0  0  0  0  0  0  0  0  0  0  0
    0.7246    2.0902    1.5066 H   0  0  0  0  0  0  0  0  0  0  0  0
    1.1472    0.4654    2.0326 H   0  0  0  0  0  0  0  0  0  0  0  0
    1.3833    1.1605   -0.9307 H   0  0  0  0  0  0  0  0  0  0  0  0
    2.6084    1.7645    0.1691 H   0  0  0  0  0  0  0  0  0  0  0  0
    4.1178   -1.1064   -0.7721 H   0  0  0  0  0  0  0  0  0  0  0  0
    0.2485   -1.3245    0.4427 H   0  0  0  0  0  0  0  0  0  0  0  0
   -2.5225   -3.3845    0.2139 H   0  0  0  0  0  0  0  0  0  0  0  0
   -1.9473   -2.9252   -1.3901 H   0  0  0  0  0  0  0  0  0  0  0  0
   -0.7683   -3.3018   -0.1105 H   0  0  0  0  0  0  0  0  0  0  0  0
  1  5  1  0  0  0  0
  1 14  1  1  0  0  0
  2  4  1  0  0  0  0
  2  1  1  0  0  0  0
  3  2  2  0  0  0  0
  5 16  1  0  0  0  0
  5 17  1  0  0  0  0
  6 19  1  0  0  0  0
  6  5  1  0  0  0  0
  7  6  1  0  0  0  0
  7  8  2  0  0  0  0
  9  7  1  0  0  0  0
 10 21  1  0  0  0  0
 10  1  1  0  0  0  0
 11 10  1  0  0  0  0
 12 11  2  0  0  0  0
 13 24  1  0  0  0  0
 13 11  1  0  0  0  0
 13 22  1  0  0  0  0
 15  4  1  0  0  0  0
 18  6  1  0  0  0  0
 20  9  1  0  0  0  0
 23 13  1  0  0  0  0
M  END
