omegacsd_FIBREN_19.log
 OpenBabel09261812563D

 39 41  0  0  1  0  0  0  0  0999 V2000
   -2.5270    1.4115    1.2360 N   0  0  0  0  0  0  0  0  0  0  0  0
   -1.2176    1.6044    1.0547 C   0  0  0  0  0  0  0  0  0  0  0  0
   -0.3879    0.8282    0.3298 N   0  0  0  0  0  0  0  0  0  0  0  0
   -0.8683   -0.2237   -0.3307 C   0  0  0  0  0  0  0  0  0  0  0  0
   -2.2354   -0.5221   -0.2056 C   0  0  1  0  0  0  0  0  0  0  0  0
   -2.9565    0.3401    0.5889 C   0  0  0  0  0  0  0  0  0  0  0  0
   -4.2452   -0.0997    0.5835 O   0  0  0  0  0  0  0  0  0  0  0  0
   -4.2228   -1.2087   -0.2242 C   0  0  0  0  0  0  0  0  0  0  0  0
   -3.0705   -1.5094   -0.7207 N   0  0  0  0  0  0  0  0  0  0  0  0
   -5.5182   -1.9082   -0.4180 C   0  0  0  0  0  0  0  0  0  0  0  0
   -0.0310   -0.9711   -1.0920 N   0  0  0  0  0  0  0  0  0  0  0  0
    1.3476   -0.6416   -1.4252 C   0  0  1  0  0  0  0  0  0  0  0  0
    1.5379    0.8027   -1.9546 C   0  0  0  0  0  0  0  0  0  0  0  0
    1.5959    2.0193   -1.0297 C   0  0  0  0  0  0  0  0  0  0  0  0
    1.0843    3.0642   -1.3435 O   0  0  0  0  0  0  0  0  0  0  0  0
    2.3822    1.9516    0.0583 O   0  0  0  0  0  0  0  0  0  0  0  0
    2.3661   -1.0499   -0.3604 C   0  0  0  0  0  0  0  0  0  0  0  0
    3.7168   -1.1247   -0.7215 C   0  0  0  0  0  0  0  0  0  0  0  0
    4.6850   -1.4879    0.2068 C   0  0  0  0  0  0  0  0  0  0  0  0
    4.3168   -1.7845    1.5169 C   0  0  0  0  0  0  0  0  0  0  0  0
    2.9779   -1.7172    1.8847 C   0  0  0  0  0  0  0  0  0  0  0  0
    2.0071   -1.3540    0.9530 C   0  0  0  0  0  0  0  0  0  0  0  0
   -0.5808    2.7990    1.6989 C   0  0  0  0  0  0  0  0  0  0  0  0
   -5.9041   -2.2763    0.5377 H   0  0  0  0  0  0  0  0  0  0  0  0
   -5.3696   -2.7491   -1.0965 H   0  0  0  0  0  0  0  0  0  0  0  0
   -6.2625   -1.2262   -0.8402 H   0  0  0  0  0  0  0  0  0  0  0  0
   -0.4537   -1.7532   -1.5685 H   0  0  0  0  0  0  0  0  0  0  0  0
    1.5616   -1.2728   -2.2960 H   0  0  0  0  0  0  0  0  0  0  0  0
    0.7482    1.0151   -2.6789 H   0  0  0  0  0  0  0  0  0  0  0  0
    2.4863    0.8181   -2.5089 H   0  0  0  0  0  0  0  0  0  0  0  0
    2.5899    1.0287    0.2720 H   0  0  0  0  0  0  0  0  0  0  0  0
    4.0142   -0.9024   -1.7455 H   0  0  0  0  0  0  0  0  0  0  0  0
    5.7279   -1.5426   -0.0940 H   0  0  0  0  0  0  0  0  0  0  0  0
    5.0712   -2.0673    2.2460 H   0  0  0  0  0  0  0  0  0  0  0  0
    2.6810   -1.9466    2.9046 H   0  0  0  0  0  0  0  0  0  0  0  0
    0.9655   -1.3018    1.2523 H   0  0  0  0  0  0  0  0  0  0  0  0
   -0.1030    3.4141    0.9283 H   0  0  0  0  0  0  0  0  0  0  0  0
    0.2094    2.4790    2.3855 H   0  0  0  0  0  0  0  0  0  0  0  0
   -1.3280    3.3811    2.2405 H   0  0  0  0  0  0  0  0  0  0  0  0
  2  1  2  0  0  0  0
  2 23  1  0  0  0  0
  3  2  1  0  0  0  0
  4  5  1  0  0  0  0
  4  3  2  0  0  0  0
  5  9  1  6  0  0  0
  5  6  1  0  0  0  0
  6  1  2  0  0  0  0
  7  6  1  0  0  0  0
  8  7  1  0  0  0  0
  9  8  2  0  0  0  0
 10  8  1  0  0  0  0
 10 24  1  0  0  0  0
 11  4  1  0  0  0  0
 12 28  1  6  0  0  0
 12 11  1  0  0  0  0
 12 17  1  0  0  0  0
 13 12  1  0  0  0  0
 13 14  1  0  0  0  0
 14 16  1  0  0  0  0
 15 14  2  0  0  0  0
 16 31  1  0  0  0  0
 17 22  1  0  0  0  0
 18 17  2  0  0  0  0
 18 19  1  0  0  0  0
 19 20  2  0  0  0  0
 20 21  1  0  0  0  0
 20 34  1  0  0  0  0
 21 35  1  0  0  0  0
 22 36  1  0  0  0  0
 22 21  2  0  0  0  0
 23 39  1  0  0  0  0
 23 38  1  0  0  0  0
 25 10  1  0  0  0  0
 26 10  1  0  0  0  0
 27 11  1  0  0  0  0
 29 13  1  0  0  0  0
 30 13  1  0  0  0  0
 32 18  1  0  0  0  0
 33 19  1  0  0  0  0
 37 23  1  0  0  0  0
M  RAD  1   5   2
M  END
