omegapdb_1z1r_09.log
 OpenBabel09261812563D

 66 68  0  0  1  0  0  0  0  0999 V2000
   -0.2772   -1.5385    1.1343 C   0  0  2  0  0  0  0  0  0  0  0  0
   -1.2074   -2.6951    0.7052 C   0  0  0  0  0  0  0  0  0  0  0  0
   -2.6664   -2.3047    0.6471 C   0  0  0  0  0  0  0  0  0  0  0  0
   -3.2631   -1.5531    1.6607 C   0  0  0  0  0  0  0  0  0  0  0  0
   -4.5517   -1.0503    1.5268 C   0  0  0  0  0  0  0  0  0  0  0  0
   -5.2690   -1.2989    0.3568 C   0  0  0  0  0  0  0  0  0  0  0  0
   -4.7275   -2.1309   -0.6202 C   0  0  0  0  0  0  0  0  0  0  0  0
   -3.4328   -2.6134   -0.4770 C   0  0  0  0  0  0  0  0  0  0  0  0
   -6.4949   -0.7404    0.1158 O   0  0  0  0  0  0  0  0  0  0  0  0
   -6.5679    0.6833    0.2407 C   0  0  0  0  0  0  0  0  0  0  0  0
   -5.9744    1.4279   -0.9541 C   0  0  0  0  0  0  0  0  0  0  0  0
   -4.4518    1.3795   -1.1246 C   0  0  0  0  0  0  0  0  0  0  0  0
   -3.7025    2.0676    0.0081 C   0  0  0  0  0  0  0  0  0  0  0  0
   -4.2810    2.6416    0.9192 O   0  0  0  0  0  0  0  0  0  0  0  0
   -2.3343    2.0596   -0.0442 N   0  0  0  0  0  0  0  0  0  0  0  0
   -1.4829    1.4201   -1.0233 C   0  0  2  0  0  0  0  0  0  0  0  0
   -1.0454   -0.0176   -0.6857 C   0  0  0  0  0  0  0  0  0  0  0  0
   -0.9923   -0.8615   -1.5721 O   0  0  0  0  0  0  0  0  0  0  0  0
   -0.6506   -0.2362    0.5915 N   0  0  0  0  0  0  0  0  0  0  0  0
   -0.2237    2.2592   -1.3075 C   0  0  0  0  0  0  0  0  0  0  0  0
    0.6241    2.5439   -0.0733 C   0  0  0  0  0  0  0  0  0  0  0  0
    0.1246    2.7907    1.0228 O   0  0  0  0  0  0  0  0  0  0  0  0
    1.9597    2.5774   -0.2770 N   0  0  0  0  0  0  0  0  0  0  0  0
    1.2045   -1.8842    0.9053 C   0  0  2  0  0  0  0  0  0  0  0  0
    1.9566   -1.1235    1.8345 O   0  0  0  0  0  0  0  0  0  0  0  0
    1.6974   -1.5939   -0.5137 C   0  0  0  0  0  0  0  0  0  0  0  0
    3.1528   -1.7959   -0.5876 N   0  0  0  0  0  0  0  0  0  0  0  0
    4.1195   -0.6692   -1.3543 S   0  0  0  0  0  0  0  0  0  0  0  0
    4.9812   -1.3991   -2.2681 O   0  0  0  0  0  0  0  0  0  0  0  0
    3.2679    0.4171   -1.8313 O   0  0  0  0  0  0  0  0  0  0  0  0
    5.1412   -0.0068   -0.0585 C   0  0  0  0  0  0  0  0  0  0  0  0
    6.5205   -0.0864   -0.1979 C   0  0  0  0  0  0  0  0  0  0  0  0
    7.3298    0.4711    0.7895 C   0  0  0  0  0  0  0  0  0  0  0  0
    6.7565    1.0921    1.8935 C   0  0  0  0  0  0  0  0  0  0  0  0
    5.3691    1.1621    2.0212 C   0  0  0  0  0  0  0  0  0  0  0  0
    4.5502    0.6171    1.0405 C   0  0  0  0  0  0  0  0  0  0  0  0
   -0.3644   -1.4234    2.2197 H   0  0  0  0  0  0  0  0  0  0  0  0
   -0.9080   -3.0705   -0.2774 H   0  0  0  0  0  0  0  0  0  0  0  0
   -1.0473   -3.5098    1.4246 H   0  0  0  0  0  0  0  0  0  0  0  0
   -2.7039   -1.3181    2.5651 H   0  0  0  0  0  0  0  0  0  0  0  0
   -4.9815   -0.4355    2.3121 H   0  0  0  0  0  0  0  0  0  0  0  0
   -5.3080   -2.3287   -1.5169 H   0  0  0  0  0  0  0  0  0  0  0  0
   -2.9870   -3.1919   -1.2830 H   0  0  0  0  0  0  0  0  0  0  0  0
   -7.6385    0.8982    0.3007 H   0  0  0  0  0  0  0  0  0  0  0  0
   -6.0986    1.0261    1.1669 H   0  0  0  0  0  0  0  0  0  0  0  0
   -6.2757    2.4771   -0.8539 H   0  0  0  0  0  0  0  0  0  0  0  0
   -6.4405    1.0389   -1.8674 H   0  0  0  0  0  0  0  0  0  0  0  0
   -4.1925    1.8952   -2.0603 H   0  0  0  0  0  0  0  0  0  0  0  0
   -4.0888    0.3524   -1.2403 H   0  0  0  0  0  0  0  0  0  0  0  0
   -1.8651    2.5730    0.6954 H   0  0  0  0  0  0  0  0  0  0  0  0
   -2.0203    1.3158   -1.9689 H   0  0  0  0  0  0  0  0  0  0  0  0
   -0.7198    0.5375    1.2385 H   0  0  0  0  0  0  0  0  0  0  0  0
   -0.5320    3.2312   -1.7110 H   0  0  0  0  0  0  0  0  0  0  0  0
    0.3693    1.7554   -2.0792 H   0  0  0  0  0  0  0  0  0  0  0  0
    2.4012    2.1161   -1.0640 H   0  0  0  0  0  0  0  0  0  0  0  0
    2.5337    2.7659    0.5325 H   0  0  0  0  0  0  0  0  0  0  0  0
    1.3281   -2.9587    1.1234 H   0  0  0  0  0  0  0  0  0  0  0  0
    2.8835   -1.3650    1.6900 H   0  0  0  0  0  0  0  0  0  0  0  0
    1.1746   -2.1949   -1.2624 H   0  0  0  0  0  0  0  0  0  0  0  0
    1.5022   -0.5465   -0.7446 H   0  0  0  0  0  0  0  0  0  0  0  0
    3.4444   -2.7174   -0.8976 H   0  0  0  0  0  0  0  0  0  0  0  0
    6.9435   -0.5785   -1.0683 H   0  0  0  0  0  0  0  0  0  0  0  0
    8.4104    0.4162    0.6927 H   0  0  0  0  0  0  0  0  0  0  0  0
    7.3917    1.5224    2.6630 H   0  0  0  0  0  0  0  0  0  0  0  0
    4.9240    1.6399    2.8896 H   0  0  0  0  0  0  0  0  0  0  0  0
    3.4671    0.6501    1.1424 H   0  0  0  0  0  0  0  0  0  0  0  0
  1 37  1  1  0  0  0
  2  1  1  0  0  0  0
  2 39  1  0  0  0  0
  3  2  1  0  0  0  0
  3  4  2  0  0  0  0
  4 40  1  0  0  0  0
  5  4  1  0  0  0  0
  5 41  1  0  0  0  0
  6  5  2  0  0  0  0
  7  8  2  0  0  0  0
  7  6  1  0  0  0  0
  8  3  1  0  0  0  0
  9 10  1  0  0  0  0
  9  6  1  0  0  0  0
 10 44  1  0  0  0  0
 10 45  1  0  0  0  0
 11 46  1  0  0  0  0
 11 10  1  0  0  0  0
 12 11  1  0  0  0  0
 12 13  1  0  0  0  0
 13 14  2  0  0  0  0
 15 13  1  0  0  0  0
 15 50  1  0  0  0  0
 16 51  1  6  0  0  0
 16 17  1  0  0  0  0
 16 15  1  0  0  0  0
 17 19  1  0  0  0  0
 18 17  2  0  0  0  0
 19  1  1  0  0  0  0
 19 52  1  0  0  0  0
 20 16  1  0  0  0  0
 20 21  1  0  0  0  0
 21 22  2  0  0  0  0
 23 21  1  0  0  0  0
 23 56  1  0  0  0  0
 24 57  1  1  0  0  0
 24  1  1  0  0  0  0
 24 25  1  0  0  0  0
 26 24  1  0  0  0  0
 27 26  1  0  0  0  0
 28 27  1  0  0  0  0
 28 31  1  0  0  0  0
 29 28  2  0  0  0  0
 30 28  2  0  0  0  0
 31 36  1  0  0  0  0
 32 31  2  0  0  0  0
 32 33  1  0  0  0  0
 33 34  2  0  0  0  0
 34 35  1  0  0  0  0
 34 64  1  0  0  0  0
 35 65  1  0  0  0  0
 36 66  1  0  0  0  0
 36 35  2  0  0  0  0
 38  2  1  0  0  0  0
 42  7  1  0  0  0  0
 43  8  1  0  0  0  0
 47 11  1  0  0  0  0
 48 12  1  0  0  0  0
 49 12  1  0  0  0  0
 53 20  1  0  0  0  0
 54 20  1  0  0  0  0
 55 23  1  0  0  0  0
 58 25  1  0  0  0  0
 59 26  1  0  0  0  0
 60 26  1  0  0  0  0
 61 27  1  0  0  0  0
 62 32  1  0  0  0  0
 63 33  1  0  0  0  0
M  END
