omegacsd_SPIRIL_15.log
 OpenBabel09261812563D

 57 60  0  0  1  0  0  0  0  0999 V2000
   -2.6348   -1.5205   -0.9444 C   0  0  0  0  0  0  0  0  0  0  0  0
   -3.6631   -0.7333   -0.1110 C   0  0  2  0  0  0  0  0  0  0  0  0
   -5.0599   -1.3482   -0.2492 C   0  0  0  0  0  0  0  0  0  0  0  0
   -5.3353   -2.5286   -0.1611 O   0  0  0  0  0  0  0  0  0  0  0  0
   -5.9271   -0.3224   -0.4549 N   0  0  0  0  0  0  0  0  0  0  0  0
   -5.2929    0.9739   -0.4382 C   0  0  0  0  0  0  0  0  0  0  0  0
   -3.8967    0.6240   -0.6531 N   0  0  0  0  0  0  0  0  0  0  0  0
   -2.9261    1.6447   -0.4319 C   0  0  0  0  0  0  0  0  0  0  0  0
   -1.8877    1.7870   -1.3581 C   0  0  0  0  0  0  0  0  0  0  0  0
   -0.8805    2.7259   -1.1600 C   0  0  0  0  0  0  0  0  0  0  0  0
   -0.9139    3.5641   -0.0486 C   0  0  0  0  0  0  0  0  0  0  0  0
   -1.9658    3.4594    0.8565 C   0  0  0  0  0  0  0  0  0  0  0  0
   -2.9625    2.5061    0.6704 C   0  0  0  0  0  0  0  0  0  0  0  0
   -3.2765   -0.7875    1.3916 C   0  0  0  0  0  0  0  0  0  0  0  0
   -1.7658   -0.8192    1.5977 C   0  0  0  0  0  0  0  0  0  0  0  0
   -1.1963   -2.0389    1.0328 N   0  0  0  0  0  0  0  0  0  0  0  0
    0.2396   -1.9555    0.8448 C   0  0  0  0  0  0  0  0  0  0  0  0
    0.7363   -1.0808   -0.3313 C   0  0  0  0  0  0  0  0  0  0  0  0
    2.2343   -0.9804   -0.3464 C   0  0  0  0  0  0  0  0  0  0  0  0
    2.9894    0.0474    0.0667 C   0  0  0  0  0  0  0  0  0  0  0  0
    4.4768   -0.0391   -0.0186 C   0  0  0  0  0  0  0  0  0  0  0  0
    5.1032   -0.6827   -1.0930 C   0  0  0  0  0  0  0  0  0  0  0  0
    6.4866   -0.7831   -1.1753 C   0  0  0  0  0  0  0  0  0  0  0  0
    7.2547   -0.2196   -0.1695 C   0  0  0  0  0  0  0  0  0  0  0  0
    6.6787    0.4407    0.9029 C   0  0  0  0  0  0  0  0  0  0  0  0
    5.2928    0.5306    0.9662 C   0  0  0  0  0  0  0  0  0  0  0  0
    8.5960   -0.3060   -0.2425 F   0  0  0  0  0  0  0  0  0  0  0  0
    2.4285    1.3243    0.6469 C   0  0  0  0  0  0  0  0  0  0  0  0
   -1.9514   -2.5930   -0.0925 C   0  0  0  0  0  0  0  0  0  0  0  0
   -3.1274   -1.9707   -1.8131 H   0  0  0  0  0  0  0  0  0  0  0  0
   -1.8783   -0.8246   -1.3199 H   0  0  0  0  0  0  0  0  0  0  0  0
   -6.9236   -0.4682   -0.4868 H   0  0  0  0  0  0  0  0  0  0  0  0
   -5.4887    1.4893    0.5193 H   0  0  0  0  0  0  0  0  0  0  0  0
   -5.6513    1.6172   -1.2511 H   0  0  0  0  0  0  0  0  0  0  0  0
   -1.8904    1.1570   -2.2429 H   0  0  0  0  0  0  0  0  0  0  0  0
   -0.0765    2.8136   -1.8866 H   0  0  0  0  0  0  0  0  0  0  0  0
   -0.1324    4.3040    0.1032 H   0  0  0  0  0  0  0  0  0  0  0  0
   -2.0080    4.1176    1.7206 H   0  0  0  0  0  0  0  0  0  0  0  0
   -3.7647    2.4293    1.4000 H   0  0  0  0  0  0  0  0  0  0  0  0
   -3.7095   -1.6935    1.8319 H   0  0  0  0  0  0  0  0  0  0  0  0
   -3.7116    0.0670    1.9230 H   0  0  0  0  0  0  0  0  0  0  0  0
   -1.3264    0.0941    1.1591 H   0  0  0  0  0  0  0  0  0  0  0  0
   -1.5392   -0.7859    2.6725 H   0  0  0  0  0  0  0  0  0  0  0  0
    0.6740   -1.5664    1.7754 H   0  0  0  0  0  0  0  0  0  0  0  0
    0.6378   -2.9719    0.7216 H   0  0  0  0  0  0  0  0  0  0  0  0
    0.2735   -0.0893   -0.2790 H   0  0  0  0  0  0  0  0  0  0  0  0
    0.4007   -1.5328   -1.2750 H   0  0  0  0  0  0  0  0  0  0  0  0
    2.7516   -1.8779   -0.6893 H   0  0  0  0  0  0  0  0  0  0  0  0
    4.4938   -1.0951   -1.8930 H   0  0  0  0  0  0  0  0  0  0  0  0
    6.9734   -1.2759   -2.0111 H   0  0  0  0  0  0  0  0  0  0  0  0
    7.3135    0.8721    1.6706 H   0  0  0  0  0  0  0  0  0  0  0  0
    4.8423    1.0440    1.8116 H   0  0  0  0  0  0  0  0  0  0  0  0
    1.3528    1.4241    0.4817 H   0  0  0  0  0  0  0  0  0  0  0  0
    2.5940    1.3715    1.7308 H   0  0  0  0  0  0  0  0  0  0  0  0
    2.9233    2.1991    0.2094 H   0  0  0  0  0  0  0  0  0  0  0  0
   -2.7184   -3.2878    0.2732 H   0  0  0  0  0  0  0  0  0  0  0  0
   -1.2662   -3.1836   -0.7109 H   0  0  0  0  0  0  0  0  0  0  0  0
  1  2  1  0  0  0  0
  1 29  1  0  0  0  0
  2  3  1  6  0  0  0
  2 14  1  0  0  0  0
  3  4  2  0  0  0  0
  5  6  1  0  0  0  0
  5  3  1  0  0  0  0
  6 33  1  0  0  0  0
  7  6  1  0  0  0  0
  7  8  1  0  0  0  0
  7  2  1  0  0  0  0
  8 13  2  0  0  0  0
  9 10  2  0  0  0  0
  9  8  1  0  0  0  0
 10 11  1  0  0  0  0
 11 37  1  0  0  0  0
 11 12  2  0  0  0  0
 12 38  1  0  0  0  0
 13 12  1  0  0  0  0
 13 39  1  0  0  0  0
 14 15  1  0  0  0  0
 14 40  1  0  0  0  0
 14 41  1  0  0  0  0
 15 43  1  0  0  0  0
 16 15  1  0  0  0  0
 17 16  1  0  0  0  0
 17 44  1  0  0  0  0
 18 46  1  0  0  0  0
 18 17  1  0  0  0  0
 19 18  1  0  0  0  0
 19 20  2  0  0  0  0
 20 28  1  0  0  0  0
 21 20  1  0  0  0  0
 21 26  2  0  0  0  0
 22 21  1  0  0  0  0
 23 22  2  0  0  0  0
 23 24  1  0  0  0  0
 24 25  2  0  0  0  0
 25 26  1  0  0  0  0
 25 51  1  0  0  0  0
 26 52  1  0  0  0  0
 27 24  1  0  0  0  0
 28 54  1  0  0  0  0
 29 56  1  0  0  0  0
 29 16  1  0  0  0  0
 30  1  1  0  0  0  0
 31  1  1  0  0  0  0
 32  5  1  0  0  0  0
 34  6  1  0  0  0  0
 35  9  1  0  0  0  0
 36 10  1  0  0  0  0
 42 15  1  0  0  0  0
 45 17  1  0  0  0  0
 47 18  1  0  0  0  0
 48 19  1  0  0  0  0
 49 22  1  0  0  0  0
 50 23  1  0  0  0  0
 53 28  1  0  0  0  0
 55 28  1  0  0  0  0
 57 29  1  0  0  0  0
M  END
