omegacsd_FIBREN_08.log
 OpenBabel09261812563D

 39 41  0  0  1  0  0  0  0  0999 V2000
    2.5505   -2.0249    1.0777 N   0  0  0  0  0  0  0  0  0  0  0  0
    1.2644   -1.9888    1.4382 C   0  0  0  0  0  0  0  0  0  0  0  0
    0.3448   -1.0736    1.0799 N   0  0  0  0  0  0  0  0  0  0  0  0
    0.7036   -0.0674    0.2774 C   0  0  0  0  0  0  0  0  0  0  0  0
    2.0393   -0.0003   -0.1579 C   0  0  1  0  0  0  0  0  0  0  0  0
    2.8606   -1.0084    0.2890 C   0  0  0  0  0  0  0  0  0  0  0  0
    4.0956   -0.7817   -0.2392 O   0  0  0  0  0  0  0  0  0  0  0  0
    3.9413    0.3628   -0.9798 C   0  0  0  0  0  0  0  0  0  0  0  0
    2.7559    0.8719   -0.9731 N   0  0  0  0  0  0  0  0  0  0  0  0
    5.1502    0.8579   -1.6863 C   0  0  0  0  0  0  0  0  0  0  0  0
   -0.2190    0.8516   -0.0936 N   0  0  0  0  0  0  0  0  0  0  0  0
   -1.6020    0.7907    0.3467 C   0  0  1  0  0  0  0  0  0  0  0  0
   -2.2725    2.1475    0.0651 C   0  0  0  0  0  0  0  0  0  0  0  0
   -1.5350    3.2652    0.7605 C   0  0  0  0  0  0  0  0  0  0  0  0
   -1.6785    3.5947    1.9106 O   0  0  0  0  0  0  0  0  0  0  0  0
   -0.6263    3.8470   -0.0567 O   0  0  0  0  0  0  0  0  0  0  0  0
   -2.3942   -0.3227   -0.3219 C   0  0  0  0  0  0  0  0  0  0  0  0
   -2.2082   -0.6247   -1.6697 C   0  0  0  0  0  0  0  0  0  0  0  0
   -2.9788   -1.6054   -2.2854 C   0  0  0  0  0  0  0  0  0  0  0  0
   -3.9466   -2.2925   -1.5580 C   0  0  0  0  0  0  0  0  0  0  0  0
   -4.1359   -1.9965   -0.2114 C   0  0  0  0  0  0  0  0  0  0  0  0
   -3.3613   -1.0170    0.4022 C   0  0  0  0  0  0  0  0  0  0  0  0
    0.7760   -3.0776    2.3508 C   0  0  0  0  0  0  0  0  0  0  0  0
    5.9530    1.0689   -0.9731 H   0  0  0  0  0  0  0  0  0  0  0  0
    5.5171    0.1072   -2.3930 H   0  0  0  0  0  0  0  0  0  0  0  0
    4.8961    1.7705   -2.2270 H   0  0  0  0  0  0  0  0  0  0  0  0
    0.1046    1.6450   -0.6297 H   0  0  0  0  0  0  0  0  0  0  0  0
   -1.6098    0.6182    1.4297 H   0  0  0  0  0  0  0  0  0  0  0  0
   -2.3070    2.3285   -1.0142 H   0  0  0  0  0  0  0  0  0  0  0  0
   -3.2943    2.1160    0.4497 H   0  0  0  0  0  0  0  0  0  0  0  0
   -0.1574    4.5077    0.4806 H   0  0  0  0  0  0  0  0  0  0  0  0
   -1.4412   -0.0994   -2.2353 H   0  0  0  0  0  0  0  0  0  0  0  0
   -2.8207   -1.8357   -3.3360 H   0  0  0  0  0  0  0  0  0  0  0  0
   -4.5470   -3.0613   -2.0377 H   0  0  0  0  0  0  0  0  0  0  0  0
   -4.8825   -2.5356    0.3663 H   0  0  0  0  0  0  0  0  0  0  0  0
   -3.5005   -0.7973    1.4595 H   0  0  0  0  0  0  0  0  0  0  0  0
    0.4910   -2.6514    3.3184 H   0  0  0  0  0  0  0  0  0  0  0  0
   -0.1159   -3.5486    1.9275 H   0  0  0  0  0  0  0  0  0  0  0  0
    1.5572   -3.8242    2.5019 H   0  0  0  0  0  0  0  0  0  0  0  0
  1  2  2  0  0  0  0
  2 23  1  0  0  0  0
  3  2  1  0  0  0  0
  4  3  2  0  0  0  0
  5  9  1  6  0  0  0
  5  4  1  0  0  0  0
  5  6  1  0  0  0  0
  6  1  2  0  0  0  0
  7  6  1  0  0  0  0
  8  9  2  0  0  0  0
  8  7  1  0  0  0  0
 10  8  1  0  0  0  0
 10 24  1  0  0  0  0
 11  4  1  0  0  0  0
 11 12  1  0  0  0  0
 12 28  1  1  0  0  0
 13 12  1  0  0  0  0
 13 30  1  0  0  0  0
 13 14  1  0  0  0  0
 14 15  2  0  0  0  0
 16 31  1  0  0  0  0
 16 14  1  0  0  0  0
 17 12  1  0  0  0  0
 17 22  2  0  0  0  0
 18 17  1  0  0  0  0
 19 18  2  0  0  0  0
 19 20  1  0  0  0  0
 20 21  2  0  0  0  0
 21 35  1  0  0  0  0
 21 22  1  0  0  0  0
 22 36  1  0  0  0  0
 23 39  1  0  0  0  0
 23 37  1  0  0  0  0
 25 10  1  0  0  0  0
 26 10  1  0  0  0  0
 27 11  1  0  0  0  0
 29 13  1  0  0  0  0
 32 18  1  0  0  0  0
 33 19  1  0  0  0  0
 34 20  1  0  0  0  0
 38 23  1  0  0  0  0
M  RAD  1   5   2
M  END
