omegapdb_1qxw_30.log
 OpenBabel09261812563D

 36 36  0  0  1  0  0  0  0  0999 V2000
   -4.6407   -0.4174    0.5252 C   0  0  0  0  0  0  0  0  0  0  0  0
   -4.6340   -1.0228   -0.8567 C   0  0  0  0  0  0  0  0  0  0  0  0
   -3.7057    0.1021   -0.5397 C   0  0  0  0  0  0  0  0  0  0  0  0
   -2.2895   -0.1343   -0.4918 N   0  0  0  0  0  0  0  0  0  0  0  0
   -1.6128    0.6176    0.5474 C   0  0  0  0  0  0  0  0  0  0  0  0
   -0.1360    0.2255    0.6272 C   0  0  0  0  0  0  0  0  0  0  0  0
    0.6134    0.4390   -0.7070 C   0  0  1  0  0  0  0  0  0  0  0  0
    0.6944    1.8543   -1.0623 N   0  0  0  0  0  0  0  0  0  0  0  0
    2.0058   -0.2114   -0.7644 C   0  0  0  0  0  0  0  0  0  0  0  0
    3.0623    0.3436    0.1971 C   0  0  0  0  0  0  0  0  0  0  0  0
    4.4958   -0.0122   -0.2088 C   0  0  0  0  0  0  0  0  0  0  0  0
    4.7731   -1.5143   -0.2246 C   0  0  0  0  0  0  0  0  0  0  0  0
    0.3839    1.0188    1.6722 O   0  0  0  0  0  0  0  0  0  0  0  0
   -0.0213   -1.1471    0.9501 O   0  0  0  0  0  0  0  0  0  0  0  0
   -4.2053   -1.0070    1.3292 H   0  0  0  0  0  0  0  0  0  0  0  0
   -5.4918    0.1886    0.8236 H   0  0  0  0  0  0  0  0  0  0  0  0
   -5.4756   -0.8315   -1.5159 H   0  0  0  0  0  0  0  0  0  0  0  0
   -4.2014   -2.0144   -0.9701 H   0  0  0  0  0  0  0  0  0  0  0  0
   -3.9540    1.0731   -0.9665 H   0  0  0  0  0  0  0  0  0  0  0  0
   -2.0944   -1.1235   -0.3594 H   0  0  0  0  0  0  0  0  0  0  0  0
   -2.0507    0.4690    1.5527 H   0  0  0  0  0  0  0  0  0  0  0  0
   -1.6925    1.6889    0.3306 H   0  0  0  0  0  0  0  0  0  0  0  0
    0.0058   -0.0538   -1.4724 H   0  0  0  0  0  0  0  0  0  0  0  0
   -0.1853    2.1578   -1.4685 H   0  0  0  0  0  0  0  0  0  0  0  0
    0.8283    2.4057   -0.2179 H   0  0  0  0  0  0  0  0  0  0  0  0
    1.8983   -1.2914   -0.6190 H   0  0  0  0  0  0  0  0  0  0  0  0
    2.3635   -0.0511   -1.7895 H   0  0  0  0  0  0  0  0  0  0  0  0
    2.9762    1.4374    0.2469 H   0  0  0  0  0  0  0  0  0  0  0  0
    2.8990   -0.0546    1.2125 H   0  0  0  0  0  0  0  0  0  0  0  0
    4.6956    0.4112   -1.2023 H   0  0  0  0  0  0  0  0  0  0  0  0
    5.1943    0.4777    0.4818 H   0  0  0  0  0  0  0  0  0  0  0  0
    5.8228   -1.7193   -0.4602 H   0  0  0  0  0  0  0  0  0  0  0  0
    4.5562   -1.9634    0.7526 H   0  0  0  0  0  0  0  0  0  0  0  0
    4.1592   -2.0306   -0.9704 H   0  0  0  0  0  0  0  0  0  0  0  0
    1.3118    0.7693    1.7835 H   0  0  0  0  0  0  0  0  0  0  0  0
   -0.4221   -1.2511    1.8255 H   0  0  0  0  0  0  0  0  0  0  0  0
  1 16  1  0  0  0  0
  1 15  1  0  0  0  0
  2  3  1  0  0  0  0
  2  1  1  0  0  0  0
  3  4  1  0  0  0  0
  3  1  1  0  0  0  0
  4 20  1  0  0  0  0
  4  5  1  0  0  0  0
  5  6  1  0  0  0  0
  5 21  1  0  0  0  0
  6 14  1  0  0  0  0
  6 13  1  0  0  0  0
  7 23  1  6  0  0  0
  7  6  1  0  0  0  0
  8  7  1  0  0  0  0
  8 25  1  0  0  0  0
  9  7  1  0  0  0  0
  9 26  1  0  0  0  0
  9 10  1  0  0  0  0
 10 28  1  0  0  0  0
 10 29  1  0  0  0  0
 11 10  1  0  0  0  0
 11 31  1  0  0  0  0
 12 11  1  0  0  0  0
 12 33  1  0  0  0  0
 13 35  1  0  0  0  0
 14 36  1  0  0  0  0
 17  2  1  0  0  0  0
 18  2  1  0  0  0  0
 19  3  1  0  0  0  0
 22  5  1  0  0  0  0
 24  8  1  0  0  0  0
 27  9  1  0  0  0  0
 30 11  1  0  0  0  0
 32 12  1  0  0  0  0
 34 12  1  0  0  0  0
M  END
