omegapdb_1v2k_04.log
 OpenBabel09261812563D

 61 65  0  0  0  0  0  0  0  0999 V2000
    9.8029    1.6093   -0.1498 N   0  0  0  0  0  0  0  0  0  0  0  0
    9.3223    0.3815    0.0616 C   0  0  0  0  0  0  0  0  0  0  0  0
    7.9783    0.0445    0.0884 C   0  0  0  0  0  0  0  0  0  0  0  0
    7.0114    1.0462   -0.1247 C   0  0  0  0  0  0  0  0  0  0  0  0
    7.5106    2.3441   -0.3486 C   0  0  0  0  0  0  0  0  0  0  0  0
    8.8805    2.5543   -0.3467 C   0  0  0  0  0  0  0  0  0  0  0  0
    5.6656    0.7752   -0.1158 N   0  0  0  0  0  0  0  0  0  0  0  0
    5.1686   -0.5910   -0.1930 C   0  0  0  0  0  0  0  0  0  0  0  0
    3.8180   -0.6121   -0.9044 C   0  0  0  0  0  0  0  0  0  0  0  0
    2.7508    0.1789   -0.1101 C   0  0  0  0  0  0  0  0  0  0  0  0
    3.4089    1.3453    0.6445 C   0  0  0  0  0  0  0  0  0  0  0  0
    4.6796    1.8440   -0.0379 C   0  0  0  0  0  0  0  0  0  0  0  0
    2.0503   -0.7620    0.8764 C   0  0  0  0  0  0  0  0  0  0  0  0
    2.3772   -0.8040    2.0542 O   0  0  0  0  0  0  0  0  0  0  0  0
    1.0679   -1.5865    0.3863 N   0  0  0  0  0  0  0  0  0  0  0  0
    0.4280   -2.5388    1.2827 C   0  0  0  0  0  0  0  0  0  0  0  0
   -1.0874   -2.4083    1.1972 C   0  0  0  0  0  0  0  0  0  0  0  0
   -1.4991   -2.5593   -0.2013 N   0  0  0  0  0  0  0  0  0  0  0  0
   -0.8741   -1.5925   -1.1017 C   0  0  0  0  0  0  0  0  0  0  0  0
    0.6431   -1.7281   -0.9959 C   0  0  0  0  0  0  0  0  0  0  0  0
   -3.1077   -2.9038   -0.4825 S   0  0  0  0  0  0  0  0  0  0  0  0
   -3.4794   -3.9277    0.4765 O   0  0  0  0  0  0  0  0  0  0  0  0
   -3.2369   -3.0954   -1.9163 O   0  0  0  0  0  0  0  0  0  0  0  0
   -3.9994   -1.4236   -0.0570 C   0  0  0  0  0  0  0  0  0  0  0  0
   -4.2976   -0.5161   -1.0384 C   0  0  0  0  0  0  0  0  0  0  0  0
   -4.9637    0.6917   -0.7061 C   0  0  0  0  0  0  0  0  0  0  0  0
   -5.3056    0.9420    0.6479 C   0  0  0  0  0  0  0  0  0  0  0  0
   -4.9880   -0.0311    1.6355 C   0  0  0  0  0  0  0  0  0  0  0  0
   -4.3518   -1.1931    1.2971 C   0  0  0  0  0  0  0  0  0  0  0  0
   -5.9668    2.1526    0.9838 C   0  0  0  0  0  0  0  0  0  0  0  0
   -6.2656    3.0572    0.0032 C   0  0  0  0  0  0  0  0  0  0  0  0
   -5.9349    2.8182   -1.3532 C   0  0  0  0  0  0  0  0  0  0  0  0
   -5.2981    1.6575   -1.6934 C   0  0  0  0  0  0  0  0  0  0  0  0
   -7.0727    4.5410    0.4083 Cl  0  0  0  0  0  0  0  0  0  0  0  0
   10.0663   -0.3964    0.2322 H   0  0  0  0  0  0  0  0  0  0  0  0
    7.6954   -0.9796    0.3063 H   0  0  0  0  0  0  0  0  0  0  0  0
    6.8481    3.1784   -0.5524 H   0  0  0  0  0  0  0  0  0  0  0  0
    9.2620    3.5595   -0.5253 H   0  0  0  0  0  0  0  0  0  0  0  0
    5.8790   -1.1915   -0.7698 H   0  0  0  0  0  0  0  0  0  0  0  0
    5.0755   -1.0507    0.8036 H   0  0  0  0  0  0  0  0  0  0  0  0
    3.5088   -1.6529   -1.0572 H   0  0  0  0  0  0  0  0  0  0  0  0
    3.9431   -0.1676   -1.8990 H   0  0  0  0  0  0  0  0  0  0  0  0
    2.0150    0.5827   -0.8134 H   0  0  0  0  0  0  0  0  0  0  0  0
    2.7033    2.1768    0.7474 H   0  0  0  0  0  0  0  0  0  0  0  0
    3.6565    1.0082    1.6550 H   0  0  0  0  0  0  0  0  0  0  0  0
    4.4543    2.2590   -1.0350 H   0  0  0  0  0  0  0  0  0  0  0  0
    5.0946    2.6610    0.5611 H   0  0  0  0  0  0  0  0  0  0  0  0
    0.7783   -2.3344    2.2945 H   0  0  0  0  0  0  0  0  0  0  0  0
    0.7198   -3.5605    1.0034 H   0  0  0  0  0  0  0  0  0  0  0  0
   -1.3958   -1.4267    1.5941 H   0  0  0  0  0  0  0  0  0  0  0  0
   -1.5635   -3.1981    1.7821 H   0  0  0  0  0  0  0  0  0  0  0  0
   -1.1700   -0.5615   -0.8425 H   0  0  0  0  0  0  0  0  0  0  0  0
   -1.1956   -1.8119   -2.1221 H   0  0  0  0  0  0  0  0  0  0  0  0
    0.9368   -2.7199   -1.3681 H   0  0  0  0  0  0  0  0  0  0  0  0
    1.1165   -0.9785   -1.6301 H   0  0  0  0  0  0  0  0  0  0  0  0
   -4.0458   -0.7319   -2.0739 H   0  0  0  0  0  0  0  0  0  0  0  0
   -5.2699    0.1575    2.6686 H   0  0  0  0  0  0  0  0  0  0  0  0
   -4.1370   -1.9542    2.0412 H   0  0  0  0  0  0  0  0  0  0  0  0
   -6.2323    2.3536    2.0178 H   0  0  0  0  0  0  0  0  0  0  0  0
   -6.1938    3.5598   -2.1022 H   0  0  0  0  0  0  0  0  0  0  0  0
   -5.0420    1.4602   -2.7317 H   0  0  0  0  0  0  0  0  0  0  0  0
  1  2  2  0  0  0  0
  2  3  1  0  0  0  0
  2 35  1  0  0  0  0
  3 36  1  0  0  0  0
  4  7  1  0  0  0  0
  4  3  2  0  0  0  0
  5  6  2  0  0  0  0
  5  4  1  0  0  0  0
  6  1  1  0  0  0  0
  7 12  1  0  0  0  0
  8  7  1  0  0  0  0
  8 40  1  0  0  0  0
  9  8  1  0  0  0  0
  9 10  1  0  0  0  0
 10 11  1  0  0  0  0
 10 13  1  0  0  0  0
 11 44  1  0  0  0  0
 11 45  1  0  0  0  0
 12 47  1  0  0  0  0
 12 11  1  0  0  0  0
 13 14  2  0  0  0  0
 15 13  1  0  0  0  0
 15 16  1  0  0  0  0
 16 48  1  0  0  0  0
 17 16  1  0  0  0  0
 17 50  1  0  0  0  0
 17 51  1  0  0  0  0
 18 17  1  0  0  0  0
 19 20  1  0  0  0  0
 19 52  1  0  0  0  0
 19 18  1  0  0  0  0
 20 15  1  0  0  0  0
 21 18  1  0  0  0  0
 21 24  1  0  0  0  0
 21 22  2  0  0  0  0
 23 21  2  0  0  0  0
 24 29  2  0  0  0  0
 25 26  2  0  0  0  0
 25 24  1  0  0  0  0
 26 27  1  0  0  0  0
 27 30  1  0  0  0  0
 27 28  2  0  0  0  0
 28 57  1  0  0  0  0
 29 28  1  0  0  0  0
 29 58  1  0  0  0  0
 30 59  1  0  0  0  0
 31 34  1  0  0  0  0
 31 30  2  0  0  0  0
 32 31  1  0  0  0  0
 33 32  2  0  0  0  0
 33 26  1  0  0  0  0
 37  5  1  0  0  0  0
 38  6  1  0  0  0  0
 39  8  1  0  0  0  0
 41  9  1  0  0  0  0
 42  9  1  0  0  0  0
 43 10  1  0  0  0  0
 46 12  1  0  0  0  0
 49 16  1  0  0  0  0
 53 19  1  0  0  0  0
 54 20  1  0  0  0  0
 55 20  1  0  0  0  0
 56 25  1  0  0  0  0
 60 32  1  0  0  0  0
 61 33  1  0  0  0  0
M  END
