omegapdb_1gs5_12.log
 OpenBabel09261812563D

 24 23  0  0  1  0  0  0  0  0999 V2000
    0.7722    0.6563   -0.5496 C   0  0  2  0  0  0  0  0  0  0  0  0
    0.6295    2.0249    0.0846 C   0  0  0  0  0  0  0  0  0  0  0  0
    0.9919    2.3105    1.2036 O   0  0  0  0  0  0  0  0  0  0  0  0
    0.0189    2.8952   -0.7301 O   0  0  0  0  0  0  0  0  0  0  0  0
   -0.6043    0.0428   -0.8555 C   0  0  0  0  0  0  0  0  0  0  0  0
   -1.4513   -0.1563    0.3943 C   0  0  0  0  0  0  0  0  0  0  0  0
   -2.7948   -0.7896    0.0777 C   0  0  0  0  0  0  0  0  0  0  0  0
   -3.1849   -1.0431   -1.0290 O   0  0  0  0  0  0  0  0  0  0  0  0
   -3.5727   -1.0562    1.1536 O   0  0  0  0  0  0  0  0  0  0  0  0
    1.5667   -0.1569    0.3442 N   0  0  0  0  0  0  0  0  0  0  0  0
    2.2516   -1.2381   -0.1320 C   0  0  0  0  0  0  0  0  0  0  0  0
    2.1180   -1.6302   -1.2799 O   0  0  0  0  0  0  0  0  0  0  0  0
    3.1874   -1.9053    0.8543 C   0  0  0  0  0  0  0  0  0  0  0  0
    1.3030    0.7691   -1.5033 H   0  0  0  0  0  0  0  0  0  0  0  0
   -0.0441    3.7350   -0.2451 H   0  0  0  0  0  0  0  0  0  0  0  0
   -0.4315   -0.9183   -1.3468 H   0  0  0  0  0  0  0  0  0  0  0  0
   -1.1348    0.6790   -1.5697 H   0  0  0  0  0  0  0  0  0  0  0  0
   -1.6423    0.8002    0.9038 H   0  0  0  0  0  0  0  0  0  0  0  0
   -0.9180   -0.7901    1.1156 H   0  0  0  0  0  0  0  0  0  0  0  0
   -3.1140   -0.8021    1.9663 H   0  0  0  0  0  0  0  0  0  0  0  0
    1.8015    0.2559    1.2369 H   0  0  0  0  0  0  0  0  0  0  0  0
    4.2188   -1.6450    0.5968 H   0  0  0  0  0  0  0  0  0  0  0  0
    3.0846   -2.9878    0.7544 H   0  0  0  0  0  0  0  0  0  0  0  0
    2.9990   -1.6150    1.8919 H   0  0  0  0  0  0  0  0  0  0  0  0
  1 14  1  6  0  0  0
  1  2  1  0  0  0  0
  1 10  1  0  0  0  0
  2  3  2  0  0  0  0
  4 15  1  0  0  0  0
  4  2  1  0  0  0  0
  5  1  1  0  0  0  0
  5  6  1  0  0  0  0
  6 18  1  0  0  0  0
  6 19  1  0  0  0  0
  7  6  1  0  0  0  0
  7  9  1  0  0  0  0
  8  7  2  0  0  0  0
  9 20  1  0  0  0  0
 10 21  1  0  0  0  0
 11 10  1  0  0  0  0
 11 13  1  0  0  0  0
 12 11  2  0  0  0  0
 13 24  1  0  0  0  0
 16  5  1  0  0  0  0
 17  5  1  0  0  0  0
 22 13  1  0  0  0  0
 23 13  1  0  0  0  0
M  END
