omegapdb_1v2k_02.log
 OpenBabel09261812563D

 61 65  0  0  0  0  0  0  0  0999 V2000
    9.0041    1.6277    1.8385 N   0  0  0  0  0  0  0  0  0  0  0  0
    8.1152    0.7871    2.3709 C   0  0  0  0  0  0  0  0  0  0  0  0
    7.1160    0.1306    1.6690 C   0  0  0  0  0  0  0  0  0  0  0  0
    6.9939    0.3240    0.2787 C   0  0  0  0  0  0  0  0  0  0  0  0
    7.9280    1.2154   -0.2847 C   0  0  0  0  0  0  0  0  0  0  0  0
    8.8821    1.8143    0.5227 C   0  0  0  0  0  0  0  0  0  0  0  0
    6.0494   -0.3466   -0.4849 N   0  0  0  0  0  0  0  0  0  0  0  0
    4.8696   -0.9053    0.1645 C   0  0  0  0  0  0  0  0  0  0  0  0
    3.8334    0.1915    0.4330 C   0  0  0  0  0  0  0  0  0  0  0  0
    3.4210    0.8929   -0.8835 C   0  0  0  0  0  0  0  0  0  0  0  0
    4.6602    1.2838   -1.7112 C   0  0  0  0  0  0  0  0  0  0  0  0
    5.6895    0.1524   -1.8102 C   0  0  0  0  0  0  0  0  0  0  0  0
    2.4895   -0.0166   -1.6871 C   0  0  0  0  0  0  0  0  0  0  0  0
    2.8890   -0.6634   -2.6488 O   0  0  0  0  0  0  0  0  0  0  0  0
    1.1864   -0.1404   -1.2869 N   0  0  0  0  0  0  0  0  0  0  0  0
    0.3634   -1.0834   -2.0476 C   0  0  0  0  0  0  0  0  0  0  0  0
   -1.0286   -1.1946   -1.4358 C   0  0  0  0  0  0  0  0  0  0  0  0
   -0.8988   -1.3791    0.0060 N   0  0  0  0  0  0  0  0  0  0  0  0
   -0.1851   -0.3317    0.7473 C   0  0  0  0  0  0  0  0  0  0  0  0
    0.5166    0.6050   -0.2373 C   0  0  0  0  0  0  0  0  0  0  0  0
   -2.0835   -2.2059    0.8171 S   0  0  0  0  0  0  0  0  0  0  0  0
   -1.6016   -2.3590    2.1777 O   0  0  0  0  0  0  0  0  0  0  0  0
   -2.4522   -3.3354   -0.0171 O   0  0  0  0  0  0  0  0  0  0  0  0
   -3.4851   -1.1079    0.8698 C   0  0  0  0  0  0  0  0  0  0  0  0
   -4.3950   -1.1392   -0.1539 C   0  0  0  0  0  0  0  0  0  0  0  0
   -5.4861   -0.2334   -0.1593 C   0  0  0  0  0  0  0  0  0  0  0  0
   -5.6162    0.6987    0.9027 C   0  0  0  0  0  0  0  0  0  0  0  0
   -4.6601    0.6881    1.9552 C   0  0  0  0  0  0  0  0  0  0  0  0
   -3.6164   -0.1962    1.9476 C   0  0  0  0  0  0  0  0  0  0  0  0
   -6.7054    1.6099    0.8957 C   0  0  0  0  0  0  0  0  0  0  0  0
   -7.6113    1.5765   -0.1275 C   0  0  0  0  0  0  0  0  0  0  0  0
   -7.4970    0.6475   -1.1909 C   0  0  0  0  0  0  0  0  0  0  0  0
   -6.4547   -0.2363   -1.1995 C   0  0  0  0  0  0  0  0  0  0  0  0
   -8.9445    2.6899   -0.1428 Cl  0  0  0  0  0  0  0  0  0  0  0  0
    8.2004    0.6224    3.4448 H   0  0  0  0  0  0  0  0  0  0  0  0
    6.4526   -0.5281    2.2170 H   0  0  0  0  0  0  0  0  0  0  0  0
    7.9303    1.4490   -1.3427 H   0  0  0  0  0  0  0  0  0  0  0  0
    9.5993    2.4997    0.0714 H   0  0  0  0  0  0  0  0  0  0  0  0
    5.1423   -1.4278    1.0825 H   0  0  0  0  0  0  0  0  0  0  0  0
    4.4530   -1.6609   -0.5121 H   0  0  0  0  0  0  0  0  0  0  0  0
    2.9589   -0.2364    0.9398 H   0  0  0  0  0  0  0  0  0  0  0  0
    4.2737    0.9323    1.1130 H   0  0  0  0  0  0  0  0  0  0  0  0
    2.8861    1.8179   -0.6379 H   0  0  0  0  0  0  0  0  0  0  0  0
    5.1330    2.1502   -1.2297 H   0  0  0  0  0  0  0  0  0  0  0  0
    4.3521    1.5901   -2.7163 H   0  0  0  0  0  0  0  0  0  0  0  0
    6.5799    0.4789   -2.3490 H   0  0  0  0  0  0  0  0  0  0  0  0
    5.2614   -0.6792   -2.3743 H   0  0  0  0  0  0  0  0  0  0  0  0
    0.2930   -0.7661   -3.0949 H   0  0  0  0  0  0  0  0  0  0  0  0
    0.8533   -2.0612   -2.0359 H   0  0  0  0  0  0  0  0  0  0  0  0
   -1.5231   -2.0759   -1.8484 H   0  0  0  0  0  0  0  0  0  0  0  0
   -1.6455   -0.3141   -1.6762 H   0  0  0  0  0  0  0  0  0  0  0  0
    0.5395   -0.8083    1.4144 H   0  0  0  0  0  0  0  0  0  0  0  0
   -0.8696    0.2679    1.3641 H   0  0  0  0  0  0  0  0  0  0  0  0
   -0.2124    1.2992   -0.6776 H   0  0  0  0  0  0  0  0  0  0  0  0
    1.2333    1.2096    0.3176 H   0  0  0  0  0  0  0  0  0  0  0  0
   -4.2971   -1.8745   -0.9490 H   0  0  0  0  0  0  0  0  0  0  0  0
   -4.7785    1.3884    2.7786 H   0  0  0  0  0  0  0  0  0  0  0  0
   -2.9045   -0.2374    2.7667 H   0  0  0  0  0  0  0  0  0  0  0  0
   -6.8140    2.3281    1.7036 H   0  0  0  0  0  0  0  0  0  0  0  0
   -8.2405    0.6506   -1.9815 H   0  0  0  0  0  0  0  0  0  0  0  0
   -6.3568   -0.9570   -2.0078 H   0  0  0  0  0  0  0  0  0  0  0  0
  1  2  1  0  0  0  0
  2 35  1  0  0  0  0
  3 36  1  0  0  0  0
  3  2  2  0  0  0  0
  4  3  1  0  0  0  0
  5  4  2  0  0  0  0
  5  6  1  0  0  0  0
  6  1  2  0  0  0  0
  7  8  1  0  0  0  0
  7  4  1  0  0  0  0
  8  9  1  0  0  0  0
  8 39  1  0  0  0  0
  9 41  1  0  0  0  0
  9 42  1  0  0  0  0
 10 43  1  0  0  0  0
 10  9  1  0  0  0  0
 11 44  1  0  0  0  0
 11 10  1  0  0  0  0
 12 11  1  0  0  0  0
 12  7  1  0  0  0  0
 13 15  1  0  0  0  0
 13 10  1  0  0  0  0
 14 13  2  0  0  0  0
 15 20  1  0  0  0  0
 16 49  1  0  0  0  0
 16 17  1  0  0  0  0
 16 15  1  0  0  0  0
 17 18  1  0  0  0  0
 18 19  1  0  0  0  0
 18 21  1  0  0  0  0
 19 53  1  0  0  0  0
 19 52  1  0  0  0  0
 20 55  1  0  0  0  0
 20 19  1  0  0  0  0
 21 24  1  0  0  0  0
 21 22  2  0  0  0  0
 23 21  2  0  0  0  0
 24 29  2  0  0  0  0
 25 24  1  0  0  0  0
 26 25  2  0  0  0  0
 26 27  1  0  0  0  0
 27 28  2  0  0  0  0
 28 57  1  0  0  0  0
 29 28  1  0  0  0  0
 29 58  1  0  0  0  0
 30 27  1  0  0  0  0
 30 59  1  0  0  0  0
 31 30  2  0  0  0  0
 32 31  1  0  0  0  0
 33 32  2  0  0  0  0
 33 26  1  0  0  0  0
 34 31  1  0  0  0  0
 37  5  1  0  0  0  0
 38  6  1  0  0  0  0
 40  8  1  0  0  0  0
 45 11  1  0  0  0  0
 46 12  1  0  0  0  0
 47 12  1  0  0  0  0
 48 16  1  0  0  0  0
 50 17  1  0  0  0  0
 51 17  1  0  0  0  0
 54 20  1  0  0  0  0
 56 25  1  0  0  0  0
 60 32  1  0  0  0  0
 61 33  1  0  0  0  0
M  END
