omegapdb_2f7p_16.log
 OpenBabel09261812563D

 34 35  0  0  1  0  0  0  0  0999 V2000
   -0.5654    0.1287   -0.2948 C   0  0  1  0  0  0  0  0  0  0  0  0
   -0.1254   -0.8540    0.7158 N   0  0  0  0  0  0  0  0  0  0  0  0
    1.0756   -1.6218    0.3355 C   0  0  0  0  0  0  0  0  0  0  0  0
    2.3356   -0.7912    0.2098 C   0  0  0  0  0  0  0  0  0  0  0  0
    2.8514   -0.4529   -1.0416 C   0  0  0  0  0  0  0  0  0  0  0  0
    3.9928    0.3380   -1.1499 C   0  0  0  0  0  0  0  0  0  0  0  0
    4.6313    0.8003   -0.0042 C   0  0  0  0  0  0  0  0  0  0  0  0
    4.1266    0.4671    1.2508 C   0  0  0  0  0  0  0  0  0  0  0  0
    2.9880   -0.3239    1.3536 C   0  0  0  0  0  0  0  0  0  0  0  0
   -1.5616   -0.5498   -1.2605 C   0  0  1  0  0  0  0  0  0  0  0  0
   -1.1266   -1.7493   -1.8504 O   0  0  0  0  0  0  0  0  0  0  0  0
   -2.8030   -0.7529   -0.3741 C   0  0  1  0  0  0  0  0  0  0  0  0
   -2.6380   -1.9401    0.3910 O   0  0  0  0  0  0  0  0  0  0  0  0
   -2.8531    0.5052    0.5439 C   0  0  1  0  0  0  0  0  0  0  0  0
   -3.0746    0.1499    1.8860 O   0  0  0  0  0  0  0  0  0  0  0  0
   -1.4617    1.1838    0.3804 C   0  0  2  0  0  0  0  0  0  0  0  0
   -1.5007    2.7767   -0.5019 S   0  0  0  0  0  0  0  0  0  0  0  0
    0.2849    0.5884   -0.8142 H   0  0  0  0  0  0  0  0  0  0  0  0
    0.0726   -0.3611    1.5839 H   0  0  0  0  0  0  0  0  0  0  0  0
    1.2145   -2.3966    1.0989 H   0  0  0  0  0  0  0  0  0  0  0  0
    0.8577   -2.1210   -0.6114 H   0  0  0  0  0  0  0  0  0  0  0  0
    2.3537   -0.8172   -1.9388 H   0  0  0  0  0  0  0  0  0  0  0  0
    4.3835    0.5920   -2.1319 H   0  0  0  0  0  0  0  0  0  0  0  0
    5.5230    1.4162   -0.0868 H   0  0  0  0  0  0  0  0  0  0  0  0
    4.6253    0.8199    2.1500 H   0  0  0  0  0  0  0  0  0  0  0  0
    2.6053   -0.5918    2.3383 H   0  0  0  0  0  0  0  0  0  0  0  0
   -1.7915    0.1525   -2.0726 H   0  0  0  0  0  0  0  0  0  0  0  0
   -1.5040   -2.4580   -1.3043 H   0  0  0  0  0  0  0  0  0  0  0  0
   -3.7216   -0.8876   -0.9514 H   0  0  0  0  0  0  0  0  0  0  0  0
   -1.7374   -1.8379    0.7886 H   0  0  0  0  0  0  0  0  0  0  0  0
   -3.6433    1.1924    0.2155 H   0  0  0  0  0  0  0  0  0  0  0  0
   -3.2379   -0.8080    1.8830 H   0  0  0  0  0  0  0  0  0  0  0  0
   -1.0924    1.4518    1.3754 H   0  0  0  0  0  0  0  0  0  0  0  0
   -2.1277    2.3509   -1.6103 H   0  0  0  0  0  0  0  0  0  0  0  0
  1 10  1  6  0  0  0
  1  2  1  0  0  0  0
  2 19  1  0  0  0  0
  3  2  1  0  0  0  0
  3 20  1  0  0  0  0
  4  3  1  0  0  0  0
  4  9  2  0  0  0  0
  5  4  1  0  0  0  0
  6  5  2  0  0  0  0
  6  7  1  0  0  0  0
  7  8  2  0  0  0  0
  8  9  1  0  0  0  0
  8 25  1  0  0  0  0
  9 26  1  0  0  0  0
 10 12  1  1  0  0  0
 11 28  1  0  0  0  0
 11 10  1  0  0  0  0
 12 13  1  0  0  0  0
 12 14  1  1  0  0  0
 13 30  1  0  0  0  0
 14 16  1  6  0  0  0
 14 15  1  0  0  0  0
 16  1  1  6  0  0  0
 16 33  1  0  0  0  0
 17 16  1  0  0  0  0
 18  1  1  0  0  0  0
 21  3  1  0  0  0  0
 22  5  1  0  0  0  0
 23  6  1  0  0  0  0
 24  7  1  0  0  0  0
 27 10  1  0  0  0  0
 29 12  1  0  0  0  0
 31 14  1  0  0  0  0
 32 15  1  0  0  0  0
 34 17  1  0  0  0  0
M  END
