omegapdb_2byh_01.log
 OpenBabel09261812563D

 40 42  0  0  0  0  0  0  0  0999 V2000
   -5.9719    1.6008   -0.8265 O   0  0  0  0  0  0  0  0  0  0  0  0
   -5.7409    0.4888   -0.3896 C   0  0  0  0  0  0  0  0  0  0  0  0
   -6.8637   -0.3955    0.1123 C   0  0  0  0  0  0  0  0  0  0  0  0
   -4.3411   -0.0337   -0.3353 C   0  0  0  0  0  0  0  0  0  0  0  0
   -3.3087    0.7880   -0.7977 C   0  0  0  0  0  0  0  0  0  0  0  0
   -1.9976    0.3535   -0.7689 C   0  0  0  0  0  0  0  0  0  0  0  0
   -1.6828   -0.9228   -0.2791 C   0  0  0  0  0  0  0  0  0  0  0  0
   -2.7048   -1.7552    0.1872 C   0  0  0  0  0  0  0  0  0  0  0  0
   -4.0175   -1.2995    0.1548 C   0  0  0  0  0  0  0  0  0  0  0  0
   -0.3283   -1.2886   -0.2869 N   0  0  0  0  0  0  0  0  0  0  0  0
    0.2723   -2.3803    0.3015 C   0  0  0  0  0  0  0  0  0  0  0  0
   -0.3459   -3.2941    0.8214 O   0  0  0  0  0  0  0  0  0  0  0  0
    1.7538   -2.4021    0.2289 C   0  0  0  0  0  0  0  0  0  0  0  0
    2.4913   -3.6063    0.2920 C   0  0  0  0  0  0  0  0  0  0  0  0
    3.7875   -3.4019    0.1498 N   0  0  0  0  0  0  0  0  0  0  0  0
    3.8986   -2.0730    0.0199 N   0  0  0  0  0  0  0  0  0  0  0  0
    2.7199   -1.4107    0.0577 C   0  0  0  0  0  0  0  0  0  0  0  0
    2.6480    0.0617   -0.0069 C   0  0  0  0  0  0  0  0  0  0  0  0
    1.7249    0.7626    0.7724 C   0  0  0  0  0  0  0  0  0  0  0  0
    1.6125    2.1413    0.6978 C   0  0  0  0  0  0  0  0  0  0  0  0
    0.4330    2.9857    1.6598 Cl  0  0  0  0  0  0  0  0  0  0  0  0
    2.4499    2.8776   -0.1475 C   0  0  0  0  0  0  0  0  0  0  0  0
    2.3940    4.2162   -0.2657 O   0  0  0  0  0  0  0  0  0  0  0  0
    3.4007    2.1967   -0.9046 C   0  0  0  0  0  0  0  0  0  0  0  0
    3.5029    0.8140   -0.8340 C   0  0  0  0  0  0  0  0  0  0  0  0
    4.4394    0.1358   -1.5519 O   0  0  0  0  0  0  0  0  0  0  0  0
   -6.7207   -0.6411    1.1705 H   0  0  0  0  0  0  0  0  0  0  0  0
   -7.8090    0.1345   -0.0128 H   0  0  0  0  0  0  0  0  0  0  0  0
   -6.8974   -1.3388   -0.4440 H   0  0  0  0  0  0  0  0  0  0  0  0
   -3.5630    1.7741   -1.1750 H   0  0  0  0  0  0  0  0  0  0  0  0
   -1.1993    1.0060   -1.1204 H   0  0  0  0  0  0  0  0  0  0  0  0
   -2.4622   -2.7382    0.5674 H   0  0  0  0  0  0  0  0  0  0  0  0
   -4.7989   -1.9608    0.5208 H   0  0  0  0  0  0  0  0  0  0  0  0
    0.2883   -0.6352   -0.7484 H   0  0  0  0  0  0  0  0  0  0  0  0
    2.0934   -4.6038    0.4218 H   0  0  0  0  0  0  0  0  0  0  0  0
    4.8023   -1.6612   -0.1570 H   0  0  0  0  0  0  0  0  0  0  0  0
    1.0754    0.2197    1.4524 H   0  0  0  0  0  0  0  0  0  0  0  0
    1.7026    4.5609    0.3205 H   0  0  0  0  0  0  0  0  0  0  0  0
    4.0564    2.7785   -1.5474 H   0  0  0  0  0  0  0  0  0  0  0  0
    4.9288    0.7549   -2.1092 H   0  0  0  0  0  0  0  0  0  0  0  0
  1  2  2  0  0  0  0
  2  4  1  0  0  0  0
  2  3  1  0  0  0  0
  3 27  1  0  0  0  0
  4  9  2  0  0  0  0
  5  6  2  0  0  0  0
  5  4  1  0  0  0  0
  6  7  1  0  0  0  0
  7  8  2  0  0  0  0
  8 32  1  0  0  0  0
  9  8  1  0  0  0  0
  9 33  1  0  0  0  0
 10  7  1  0  0  0  0
 10 11  1  0  0  0  0
 11 12  2  0  0  0  0
 13 14  1  0  0  0  0
 13 11  1  0  0  0  0
 14 35  1  0  0  0  0
 15 14  2  0  0  0  0
 16 17  1  0  0  0  0
 16 15  1  0  0  0  0
 17 13  2  0  0  0  0
 18 17  1  0  0  0  0
 18 19  2  0  0  0  0
 19 37  1  0  0  0  0
 20 19  1  0  0  0  0
 20 21  1  0  0  0  0
 22 20  2  0  0  0  0
 23 22  1  0  0  0  0
 23 38  1  0  0  0  0
 24 25  2  0  0  0  0
 24 22  1  0  0  0  0
 25 18  1  0  0  0  0
 26 25  1  0  0  0  0
 28  3  1  0  0  0  0
 29  3  1  0  0  0  0
 30  5  1  0  0  0  0
 31  6  1  0  0  0  0
 34 10  1  0  0  0  0
 36 16  1  0  0  0  0
 39 24  1  0  0  0  0
 40 26  1  0  0  0  0
M  END
