omegacsd_SEYMIS_00.log
 OpenBabel09261812563D

 45 47  0  0  0  0  0  0  0  0999 V2000
    5.2471   -0.9100   -0.2680 O   0  0  0  0  0  0  0  0  0  0  0  0
    4.8545    0.4083   -0.1931 N   0  0  0  0  0  0  0  0  0  0  0  0
    3.5582    0.3913   -0.0147 C   0  0  0  0  0  0  0  0  0  0  0  0
    3.0609   -0.9566    0.0353 C   0  0  0  0  0  0  0  0  0  0  0  0
    1.6890   -1.5235    0.1407 C   0  0  0  0  0  0  0  0  0  0  0  0
    1.4966   -2.6951    0.4469 O   0  0  0  0  0  0  0  0  0  0  0  0
    0.6731   -0.6688   -0.1580 N   0  0  0  0  0  0  0  0  0  0  0  0
   -0.6932   -0.9888   -0.1010 C   0  0  0  0  0  0  0  0  0  0  0  0
   -1.2779   -2.2167    0.1575 C   0  0  0  0  0  0  0  0  0  0  0  0
   -2.6298   -2.0632    0.1110 N   0  0  0  0  0  0  0  0  0  0  0  0
   -3.5763   -3.1439    0.3381 C   0  0  0  0  0  0  0  0  0  0  0  0
   -2.9222   -0.7509   -0.1741 C   0  0  0  0  0  0  0  0  0  0  0  0
   -1.7309   -0.0606   -0.3088 C   0  0  0  0  0  0  0  0  0  0  0  0
   -4.2944   -0.2605   -0.3004 C   0  0  0  0  0  0  0  0  0  0  0  0
   -5.2957   -0.9420   -0.1939 O   0  0  0  0  0  0  0  0  0  0  0  0
   -4.3159    1.0599   -0.5597 O   0  0  0  0  0  0  0  0  0  0  0  0
   -5.6178    1.6481   -0.7117 C   0  0  0  0  0  0  0  0  0  0  0  0
   -6.2548    1.9405    0.6339 C   0  0  0  0  0  0  0  0  0  0  0  0
    4.1887   -1.7130   -0.1253 C   0  0  0  0  0  0  0  0  0  0  0  0
    4.4482   -3.1749   -0.1858 C   0  0  0  0  0  0  0  0  0  0  0  0
    2.8506    1.6878    0.1101 C   0  0  0  0  0  0  0  0  0  0  0  0
    1.9143    1.9045    1.1263 C   0  0  0  0  0  0  0  0  0  0  0  0
    1.2751    3.1350    1.2385 C   0  0  0  0  0  0  0  0  0  0  0  0
    1.5704    4.1595    0.3434 C   0  0  0  0  0  0  0  0  0  0  0  0
    2.5107    3.9528   -0.6623 C   0  0  0  0  0  0  0  0  0  0  0  0
    3.1483    2.7230   -0.7802 C   0  0  0  0  0  0  0  0  0  0  0  0
    0.8986    0.2784   -0.4247 H   0  0  0  0  0  0  0  0  0  0  0  0
   -0.8172   -3.1680    0.3711 H   0  0  0  0  0  0  0  0  0  0  0  0
   -4.2200   -2.9190    1.1904 H   0  0  0  0  0  0  0  0  0  0  0  0
   -4.2089   -3.2918   -0.5385 H   0  0  0  0  0  0  0  0  0  0  0  0
   -3.0040   -4.0517    0.5389 H   0  0  0  0  0  0  0  0  0  0  0  0
   -1.6383    0.9948   -0.5303 H   0  0  0  0  0  0  0  0  0  0  0  0
   -6.2432    0.9764   -1.3058 H   0  0  0  0  0  0  0  0  0  0  0  0
   -5.4353    2.5655   -1.2763 H   0  0  0  0  0  0  0  0  0  0  0  0
   -5.6039    2.5794    1.2387 H   0  0  0  0  0  0  0  0  0  0  0  0
   -7.2099    2.4569    0.4903 H   0  0  0  0  0  0  0  0  0  0  0  0
   -6.4435    1.0095    1.1744 H   0  0  0  0  0  0  0  0  0  0  0  0
    5.1094   -3.4709    0.6350 H   0  0  0  0  0  0  0  0  0  0  0  0
    4.9434   -3.4326   -1.1271 H   0  0  0  0  0  0  0  0  0  0  0  0
    3.5034   -3.7102   -0.0948 H   0  0  0  0  0  0  0  0  0  0  0  0
    1.6925    1.1105    1.8355 H   0  0  0  0  0  0  0  0  0  0  0  0
    0.5500    3.2941    2.0321 H   0  0  0  0  0  0  0  0  0  0  0  0
    1.0702    5.1203    0.4324 H   0  0  0  0  0  0  0  0  0  0  0  0
    2.7476    4.7510   -1.3606 H   0  0  0  0  0  0  0  0  0  0  0  0
    3.8857    2.5530   -1.5597 H   0  0  0  0  0  0  0  0  0  0  0  0
  1  2  1  0  0  0  0
  1 19  1  0  0  0  0
  2  3  2  0  0  0  0
  3  4  1  0  0  0  0
  3 21  1  0  0  0  0
  4  5  1  0  0  0  0
  5  6  2  0  0  0  0
  7  8  1  0  0  0  0
  7  5  1  0  0  0  0
  8  9  2  0  0  0  0
  9 28  1  0  0  0  0
 10  9  1  0  0  0  0
 10 11  1  0  0  0  0
 11 31  1  0  0  0  0
 11 29  1  0  0  0  0
 12 10  1  0  0  0  0
 13 12  2  0  0  0  0
 13  8  1  0  0  0  0
 14 15  2  0  0  0  0
 14 12  1  0  0  0  0
 16 14  1  0  0  0  0
 17 16  1  0  0  0  0
 17 18  1  0  0  0  0
 18 37  1  0  0  0  0
 18 35  1  0  0  0  0
 19  4  2  0  0  0  0
 20 19  1  0  0  0  0
 20 40  1  0  0  0  0
 20 38  1  0  0  0  0
 21 22  2  0  0  0  0
 22 23  1  0  0  0  0
 22 41  1  0  0  0  0
 23 42  1  0  0  0  0
 24 43  1  0  0  0  0
 24 23  2  0  0  0  0
 25 24  1  0  0  0  0
 26 25  2  0  0  0  0
 26 21  1  0  0  0  0
 27  7  1  0  0  0  0
 30 11  1  0  0  0  0
 32 13  1  0  0  0  0
 33 17  1  0  0  0  0
 34 17  1  0  0  0  0
 36 18  1  0  0  0  0
 39 20  1  0  0  0  0
 44 25  1  0  0  0  0
 45 26  1  0  0  0  0
M  END
