omegapdb_2f7p_07.log
 OpenBabel09261812563D

 34 35  0  0  1  0  0  0  0  0999 V2000
   -0.9373   -0.0423   -0.7026 C   0  0  1  0  0  0  0  0  0  0  0  0
    0.4278   -0.3953   -0.4125 N   0  0  0  0  0  0  0  0  0  0  0  0
    1.3646    0.7136   -0.3437 C   0  0  0  0  0  0  0  0  0  0  0  0
    2.7805    0.2328   -0.1086 C   0  0  0  0  0  0  0  0  0  0  0  0
    3.6604    0.9954    0.6594 C   0  0  0  0  0  0  0  0  0  0  0  0
    4.9747    0.5829    0.8563 C   0  0  0  0  0  0  0  0  0  0  0  0
    5.4226   -0.6075    0.2920 C   0  0  0  0  0  0  0  0  0  0  0  0
    4.5489   -1.3785   -0.4701 C   0  0  0  0  0  0  0  0  0  0  0  0
    3.2370   -0.9608   -0.6706 C   0  0  0  0  0  0  0  0  0  0  0  0
   -1.8424   -1.2824   -0.6809 C   0  0  1  0  0  0  0  0  0  0  0  0
   -1.5873   -2.1404    0.4243 O   0  0  0  0  0  0  0  0  0  0  0  0
   -3.2537   -0.6967   -0.5489 C   0  0  1  0  0  0  0  0  0  0  0  0
   -4.1995   -1.6515   -0.1158 O   0  0  0  0  0  0  0  0  0  0  0  0
   -3.0639    0.4161    0.5037 C   0  0  1  0  0  0  0  0  0  0  0  0
   -3.0511   -0.1906    1.7946 O   0  0  0  0  0  0  0  0  0  0  0  0
   -1.6579    0.9857    0.2411 C   0  0  2  0  0  0  0  0  0  0  0  0
   -1.6644    2.6186   -0.5612 S   0  0  0  0  0  0  0  0  0  0  0  0
   -0.9680    0.3624   -1.7263 H   0  0  0  0  0  0  0  0  0  0  0  0
    0.4695   -0.9696    0.4243 H   0  0  0  0  0  0  0  0  0  0  0  0
    1.3108    1.2490   -1.3030 H   0  0  0  0  0  0  0  0  0  0  0  0
    1.1070    1.4600    0.4284 H   0  0  0  0  0  0  0  0  0  0  0  0
    3.3110    1.9227    1.1105 H   0  0  0  0  0  0  0  0  0  0  0  0
    5.6470    1.1891    1.4585 H   0  0  0  0  0  0  0  0  0  0  0  0
    6.4472   -0.9353    0.4486 H   0  0  0  0  0  0  0  0  0  0  0  0
    4.8911   -2.3113   -0.9119 H   0  0  0  0  0  0  0  0  0  0  0  0
    2.5480   -1.5607   -1.2593 H   0  0  0  0  0  0  0  0  0  0  0  0
   -1.7045   -1.8966   -1.5742 H   0  0  0  0  0  0  0  0  0  0  0  0
   -1.8199   -1.6326    1.2250 H   0  0  0  0  0  0  0  0  0  0  0  0
   -3.5826   -0.2635   -1.5013 H   0  0  0  0  0  0  0  0  0  0  0  0
   -3.6776   -2.4270    0.1493 H   0  0  0  0  0  0  0  0  0  0  0  0
   -3.8482    1.1817    0.4585 H   0  0  0  0  0  0  0  0  0  0  0  0
   -3.8463   -0.7503    1.8048 H   0  0  0  0  0  0  0  0  0  0  0  0
   -1.1302    1.0578    1.1976 H   0  0  0  0  0  0  0  0  0  0  0  0
   -2.2165    3.3049    0.4516 H   0  0  0  0  0  0  0  0  0  0  0  0
  1 10  1  1  0  0  0
  1  2  1  0  0  0  0
  2  3  1  0  0  0  0
  2 19  1  0  0  0  0
  3  4  1  0  0  0  0
  3 21  1  0  0  0  0
  4  5  2  0  0  0  0
  5  6  1  0  0  0  0
  5 22  1  0  0  0  0
  6 23  1  0  0  0  0
  7 24  1  0  0  0  0
  7  6  2  0  0  0  0
  8  7  1  0  0  0  0
  9  8  2  0  0  0  0
  9  4  1  0  0  0  0
 10 12  1  1  0  0  0
 10 11  1  0  0  0  0
 11 28  1  0  0  0  0
 12 13  1  0  0  0  0
 12 14  1  1  0  0  0
 13 30  1  0  0  0  0
 14 16  1  6  0  0  0
 14 15  1  0  0  0  0
 15 32  1  0  0  0  0
 16  1  1  6  0  0  0
 16 33  1  0  0  0  0
 17 16  1  0  0  0  0
 17 34  1  0  0  0  0
 18  1  1  0  0  0  0
 20  3  1  0  0  0  0
 25  8  1  0  0  0  0
 26  9  1  0  0  0  0
 27 10  1  0  0  0  0
 29 12  1  0  0  0  0
 31 14  1  0  0  0  0
M  END
