omegacsd_FABSOQ10_04.log
 OpenBabel09261812563D

 45 47  0  0  1  0  0  0  0  0999 V2000
    0.1042   -0.1147   -0.0793 S   0  0  0  0  0  0  0  0  0  0  0  0
    0.9377   -0.9482    1.1905 C   0  0  0  0  0  0  0  0  0  0  0  0
    0.4128   -2.1896    1.3874 C   0  0  0  0  0  0  0  0  0  0  0  0
   -0.6731   -2.4856    0.5050 C   0  0  0  0  0  0  0  0  0  0  0  0
   -0.9553   -1.4551   -0.3406 C   0  0  0  0  0  0  0  0  0  0  0  0
   -2.0528   -1.3998   -1.3838 C   0  0  1  0  0  0  0  0  0  0  0  0
   -2.5055   -2.7078   -1.6815 O   0  0  0  0  0  0  0  0  0  0  0  0
   -3.2397   -0.5864   -0.9109 C   0  0  0  0  0  0  0  0  0  0  0  0
   -3.4298    0.7160   -1.3469 C   0  0  0  0  0  0  0  0  0  0  0  0
   -4.4976    1.4893   -0.8866 C   0  0  0  0  0  0  0  0  0  0  0  0
   -5.3962    0.9374    0.0223 C   0  0  0  0  0  0  0  0  0  0  0  0
   -6.4736    1.5880    0.5376 O   0  0  0  0  0  0  0  0  0  0  0  0
   -6.6848    2.9227    0.1339 C   0  0  0  0  0  0  0  0  0  0  0  0
   -5.2173   -0.3805    0.4625 C   0  0  0  0  0  0  0  0  0  0  0  0
   -4.1496   -1.1279    0.0038 C   0  0  0  0  0  0  0  0  0  0  0  0
    2.0721   -0.2916    1.9337 C   0  0  2  0  0  0  0  0  0  0  0  0
    1.6582    0.9243    2.5323 O   0  0  0  0  0  0  0  0  0  0  0  0
    3.2676   -0.0012    1.0424 C   0  0  0  0  0  0  0  0  0  0  0  0
    3.7888    1.2777    0.9143 C   0  0  0  0  0  0  0  0  0  0  0  0
    4.8952    1.5272    0.0988 C   0  0  0  0  0  0  0  0  0  0  0  0
    5.4902    0.4787   -0.5967 C   0  0  0  0  0  0  0  0  0  0  0  0
    6.5677    0.6049   -1.4184 O   0  0  0  0  0  0  0  0  0  0  0  0
    7.1158    1.8941   -1.5806 C   0  0  0  0  0  0  0  0  0  0  0  0
    4.9725   -0.8161   -0.4709 C   0  0  0  0  0  0  0  0  0  0  0  0
    3.8756   -1.0465    0.3375 C   0  0  0  0  0  0  0  0  0  0  0  0
    0.7882   -2.8761    2.1411 H   0  0  0  0  0  0  0  0  0  0  0  0
   -1.2322   -3.4153    0.5094 H   0  0  0  0  0  0  0  0  0  0  0  0
   -1.6499   -0.9176   -2.2895 H   0  0  0  0  0  0  0  0  0  0  0  0
   -1.7298   -3.2272   -1.9328 H   0  0  0  0  0  0  0  0  0  0  0  0
   -2.7367    1.1515   -2.0651 H   0  0  0  0  0  0  0  0  0  0  0  0
   -4.6152    2.5045   -1.2505 H   0  0  0  0  0  0  0  0  0  0  0  0
   -6.8511    2.9949   -0.9489 H   0  0  0  0  0  0  0  0  0  0  0  0
   -7.5804    3.2597    0.6584 H   0  0  0  0  0  0  0  0  0  0  0  0
   -5.8388    3.5651    0.4115 H   0  0  0  0  0  0  0  0  0  0  0  0
   -5.9347   -0.7895    1.1680 H   0  0  0  0  0  0  0  0  0  0  0  0
   -4.0149   -2.1513    0.3438 H   0  0  0  0  0  0  0  0  0  0  0  0
    2.3874   -1.0082    2.7112 H   0  0  0  0  0  0  0  0  0  0  0  0
    0.8281    0.7487    2.9931 H   0  0  0  0  0  0  0  0  0  0  0  0
    3.3269    2.0948    1.4586 H   0  0  0  0  0  0  0  0  0  0  0  0
    5.2760    2.5403    0.0204 H   0  0  0  0  0  0  0  0  0  0  0  0
    7.4868    2.2970   -0.6289 H   0  0  0  0  0  0  0  0  0  0  0  0
    6.3827    2.5930   -2.0044 H   0  0  0  0  0  0  0  0  0  0  0  0
    7.9505    1.7836   -2.2748 H   0  0  0  0  0  0  0  0  0  0  0  0
    5.4497   -1.6208   -1.0225 H   0  0  0  0  0  0  0  0  0  0  0  0
    3.4723   -2.0546    0.4192 H   0  0  0  0  0  0  0  0  0  0  0  0
  1  2  1  0  0  0  0
  2  3  2  0  0  0  0
  2 16  1  0  0  0  0
  3 26  1  0  0  0  0
  4 27  1  0  0  0  0
  4  3  1  0  0  0  0
  5  1  1  0  0  0  0
  5  4  2  0  0  0  0
  6 28  1  6  0  0  0
  6  8  1  0  0  0  0
  6  5  1  0  0  0  0
  7  6  1  0  0  0  0
  8 15  1  0  0  0  0
  9  8  2  0  0  0  0
  9 10  1  0  0  0  0
 10 11  2  0  0  0  0
 11 14  1  0  0  0  0
 11 12  1  0  0  0  0
 13 34  1  0  0  0  0
 13 12  1  0  0  0  0
 13 33  1  0  0  0  0
 14 35  1  0  0  0  0
 15 36  1  0  0  0  0
 15 14  2  0  0  0  0
 16 17  1  0  0  0  0
 16 37  1  1  0  0  0
 17 38  1  0  0  0  0
 18 16  1  0  0  0  0
 19 18  1  0  0  0  0
 19 39  1  0  0  0  0
 20 19  2  0  0  0  0
 21 24  2  0  0  0  0
 21 20  1  0  0  0  0
 22 21  1  0  0  0  0
 23 22  1  0  0  0  0
 23 41  1  0  0  0  0
 24 25  1  0  0  0  0
 25 45  1  0  0  0  0
 25 18  2  0  0  0  0
 29  7  1  0  0  0  0
 30  9  1  0  0  0  0
 31 10  1  0  0  0  0
 32 13  1  0  0  0  0
 40 20  1  0  0  0  0
 42 23  1  0  0  0  0
 43 23  1  0  0  0  0
 44 24  1  0  0  0  0
M  END
