omegapdb_1xom_01.log
 OpenBabel09261812563D

 50 52  0  0  1  0  0  0  0  0999 V2000
   -5.6367    2.0753    0.7447 O   0  0  0  0  0  0  0  0  0  0  0  0
   -5.3436    1.1553   -0.1993 C   0  0  0  0  0  0  0  0  0  0  0  0
   -6.1882    0.6866   -0.9235 O   0  0  0  0  0  0  0  0  0  0  0  0
   -3.8685    0.8197   -0.2222 C   0  0  1  0  0  0  0  0  0  0  0  0
   -3.3787    0.3542    1.1590 C   0  0  0  0  0  0  0  0  0  0  0  0
   -1.8871    0.0224    1.1248 C   0  0  0  0  0  0  0  0  0  0  0  0
   -1.5283   -1.0281    0.0417 C   0  0  2  0  0  0  0  0  0  0  0  0
   -2.0710   -0.5570   -1.3325 C   0  0  0  0  0  0  0  0  0  0  0  0
   -3.5619   -0.2222   -1.2980 C   0  0  0  0  0  0  0  0  0  0  0  0
   -2.2222   -2.2848    0.3935 C   0  0  0  0  0  0  0  0  0  0  0  0
   -2.7931   -3.2518    0.6734 N   0  0  0  0  0  0  0  0  0  0  0  0
   -0.0160   -1.2628   -0.0096 C   0  0  0  0  0  0  0  0  0  0  0  0
    0.5679   -2.4905    0.2699 C   0  0  0  0  0  0  0  0  0  0  0  0
    1.9537   -2.6592    0.2156 C   0  0  0  0  0  0  0  0  0  0  0  0
    2.7833   -1.5970   -0.1216 C   0  0  0  0  0  0  0  0  0  0  0  0
    4.1366   -1.6663   -0.2194 O   0  0  0  0  0  0  0  0  0  0  0  0
    4.7427   -2.9210    0.0110 C   0  0  0  0  0  0  0  0  0  0  0  0
    2.2034   -0.3415   -0.3974 C   0  0  0  0  0  0  0  0  0  0  0  0
    0.8288   -0.1945   -0.3392 C   0  0  0  0  0  0  0  0  0  0  0  0
    2.9681    0.7206   -0.7887 O   0  0  0  0  0  0  0  0  0  0  0  0
    3.8262    1.2977    0.2140 C   0  0  0  0  0  0  0  0  0  0  0  0
    4.5628    2.4367   -0.4778 C   0  0  0  0  0  0  0  0  0  0  0  0
    3.5222    3.5703   -0.5612 C   0  0  0  0  0  0  0  0  0  0  0  0
    2.5186    3.3048    0.5928 C   0  0  0  0  0  0  0  0  0  0  0  0
    3.0064    2.0166    1.2844 C   0  0  0  0  0  0  0  0  0  0  0  0
   -6.5950    2.2228    0.6842 H   0  0  0  0  0  0  0  0  0  0  0  0
   -3.3452    1.7583   -0.4628 H   0  0  0  0  0  0  0  0  0  0  0  0
   -3.5687    1.1312    1.9057 H   0  0  0  0  0  0  0  0  0  0  0  0
   -3.9487   -0.5335    1.4657 H   0  0  0  0  0  0  0  0  0  0  0  0
   -1.3139    0.9324    0.9054 H   0  0  0  0  0  0  0  0  0  0  0  0
   -1.5496   -0.3389    2.1024 H   0  0  0  0  0  0  0  0  0  0  0  0
   -1.8650   -1.3273   -2.0833 H   0  0  0  0  0  0  0  0  0  0  0  0
   -1.4992    0.3325   -1.6258 H   0  0  0  0  0  0  0  0  0  0  0  0
   -4.1502   -1.1265   -1.0992 H   0  0  0  0  0  0  0  0  0  0  0  0
   -3.8846    0.1441   -2.2778 H   0  0  0  0  0  0  0  0  0  0  0  0
   -0.0512   -3.3439    0.5328 H   0  0  0  0  0  0  0  0  0  0  0  0
    2.3702   -3.6374    0.4315 H   0  0  0  0  0  0  0  0  0  0  0  0
    5.8133   -2.7686   -0.1323 H   0  0  0  0  0  0  0  0  0  0  0  0
    4.3839   -3.6737   -0.7023 H   0  0  0  0  0  0  0  0  0  0  0  0
    4.5589   -3.2745    1.0337 H   0  0  0  0  0  0  0  0  0  0  0  0
    0.4358    0.7925   -0.5723 H   0  0  0  0  0  0  0  0  0  0  0  0
    4.4889    0.5219    0.6106 H   0  0  0  0  0  0  0  0  0  0  0  0
    5.4133    2.7328    0.1483 H   0  0  0  0  0  0  0  0  0  0  0  0
    4.9523    2.1286   -1.4522 H   0  0  0  0  0  0  0  0  0  0  0  0
    3.9918    4.5558   -0.4825 H   0  0  0  0  0  0  0  0  0  0  0  0
    3.0084    3.5347   -1.5263 H   0  0  0  0  0  0  0  0  0  0  0  0
    2.4645    4.1412    1.2967 H   0  0  0  0  0  0  0  0  0  0  0  0
    1.5091    3.1629    0.1921 H   0  0  0  0  0  0  0  0  0  0  0  0
    3.6703    2.2533    2.1252 H   0  0  0  0  0  0  0  0  0  0  0  0
    2.1926    1.3975    1.6768 H   0  0  0  0  0  0  0  0  0  0  0  0
  2  1  1  0  0  0  0
  3  2  2  0  0  0  0
  4 27  1  6  0  0  0
  4  2  1  0  0  0  0
  4  5  1  0  0  0  0
  5 29  1  0  0  0  0
  5 28  1  0  0  0  0
  6  5  1  0  0  0  0
  6 31  1  0  0  0  0
  7 10  1  1  0  0  0
  7  6  1  0  0  0  0
  8  9  1  0  0  0  0
  8  7  1  0  0  0  0
  9 34  1  0  0  0  0
  9  4  1  0  0  0  0
 10 11  3  0  0  0  0
 12  7  1  0  0  0  0
 12 13  2  0  0  0  0
 13 36  1  0  0  0  0
 14 13  1  0  0  0  0
 14 37  1  0  0  0  0
 15 14  2  0  0  0  0
 16 15  1  0  0  0  0
 16 17  1  0  0  0  0
 17 40  1  0  0  0  0
 18 19  2  0  0  0  0
 18 15  1  0  0  0  0
 19 12  1  0  0  0  0
 20 18  1  0  0  0  0
 20 21  1  0  0  0  0
 21 42  1  0  0  0  0
 21 25  1  0  0  0  0
 22 43  1  0  0  0  0
 22 21  1  0  0  0  0
 23 45  1  0  0  0  0
 23 22  1  0  0  0  0
 23 24  1  0  0  0  0
 24 25  1  0  0  0  0
 24 47  1  0  0  0  0
 25 50  1  0  0  0  0
 25 49  1  0  0  0  0
 26  1  1  0  0  0  0
 30  6  1  0  0  0  0
 32  8  1  0  0  0  0
 33  8  1  0  0  0  0
 35  9  1  0  0  0  0
 38 17  1  0  0  0  0
 39 17  1  0  0  0  0
 41 19  1  0  0  0  0
 44 22  1  0  0  0  0
 46 23  1  0  0  0  0
 48 24  1  0  0  0  0
M  END
