omegacsd_FABSOQ10_09.log
 OpenBabel09261812563D

 45 47  0  0  1  0  0  0  0  0999 V2000
   -0.2120    0.0439    0.1860 S   0  0  0  0  0  0  0  0  0  0  0  0
   -0.9068    1.5745   -0.2248 C   0  0  0  0  0  0  0  0  0  0  0  0
   -0.2837    2.5960    0.4229 C   0  0  0  0  0  0  0  0  0  0  0  0
    0.7823    2.1432    1.2611 C   0  0  0  0  0  0  0  0  0  0  0  0
    0.9494    0.7933    1.2262 C   0  0  0  0  0  0  0  0  0  0  0  0
    2.0076   -0.0193    1.9216 C   0  0  1  0  0  0  0  0  0  0  0  0
    1.3928   -1.2109    2.3832 O   0  0  0  0  0  0  0  0  0  0  0  0
    3.1972   -0.3181    1.0214 C   0  0  0  0  0  0  0  0  0  0  0  0
    4.3312    0.4825    1.0509 C   0  0  0  0  0  0  0  0  0  0  0  0
    5.4198    0.2358    0.2144 C   0  0  0  0  0  0  0  0  0  0  0  0
    5.3732   -0.8417   -0.6686 C   0  0  0  0  0  0  0  0  0  0  0  0
    6.3722   -1.1819   -1.5260 O   0  0  0  0  0  0  0  0  0  0  0  0
    7.5334   -0.3811   -1.5275 C   0  0  0  0  0  0  0  0  0  0  0  0
    4.2381   -1.6594   -0.7033 C   0  0  0  0  0  0  0  0  0  0  0  0
    3.1661   -1.3972    0.1307 C   0  0  0  0  0  0  0  0  0  0  0  0
   -2.0502    1.6764   -1.2039 C   0  0  2  0  0  0  0  0  0  0  0  0
   -2.5106    3.0181   -1.1380 O   0  0  0  0  0  0  0  0  0  0  0  0
   -3.1665    0.6892   -0.9212 C   0  0  0  0  0  0  0  0  0  0  0  0
   -3.4926   -0.3193   -1.8287 C   0  0  0  0  0  0  0  0  0  0  0  0
   -4.5234   -1.2092   -1.5667 C   0  0  0  0  0  0  0  0  0  0  0  0
   -5.2558   -1.0986   -0.3828 C   0  0  0  0  0  0  0  0  0  0  0  0
   -6.2479   -2.0122   -0.2139 O   0  0  0  0  0  0  0  0  0  0  0  0
   -7.0007   -1.9507    0.9782 C   0  0  0  0  0  0  0  0  0  0  0  0
   -4.9454   -0.0895    0.5331 C   0  0  0  0  0  0  0  0  0  0  0  0
   -3.9057    0.7911    0.2549 C   0  0  0  0  0  0  0  0  0  0  0  0
   -0.5838    3.6305    0.3051 H   0  0  0  0  0  0  0  0  0  0  0  0
    1.4001    2.8006    1.8663 H   0  0  0  0  0  0  0  0  0  0  0  0
    2.3655    0.5871    2.7701 H   0  0  0  0  0  0  0  0  0  0  0  0
    2.0991   -1.8025    2.6753 H   0  0  0  0  0  0  0  0  0  0  0  0
    4.3767    1.3242    1.7405 H   0  0  0  0  0  0  0  0  0  0  0  0
    6.2889    0.8831    0.2673 H   0  0  0  0  0  0  0  0  0  0  0  0
    7.3055    0.6582   -1.7982 H   0  0  0  0  0  0  0  0  0  0  0  0
    8.0339   -0.3968   -0.5505 H   0  0  0  0  0  0  0  0  0  0  0  0
    8.1975   -0.8114   -2.2788 H   0  0  0  0  0  0  0  0  0  0  0  0
    4.2242   -2.4935   -1.3988 H   0  0  0  0  0  0  0  0  0  0  0  0
    2.2865   -2.0363    0.0971 H   0  0  0  0  0  0  0  0  0  0  0  0
   -1.6588    1.4666   -2.2142 H   0  0  0  0  0  0  0  0  0  0  0  0
   -3.3052    3.0682   -1.6842 H   0  0  0  0  0  0  0  0  0  0  0  0
   -2.9300   -0.4123   -2.7564 H   0  0  0  0  0  0  0  0  0  0  0  0
   -4.7836   -1.9987   -2.2655 H   0  0  0  0  0  0  0  0  0  0  0  0
   -7.7288   -2.7610    0.9180 H   0  0  0  0  0  0  0  0  0  0  0  0
   -6.3666   -2.0977    1.8619 H   0  0  0  0  0  0  0  0  0  0  0  0
   -7.5312   -0.9940    1.0705 H   0  0  0  0  0  0  0  0  0  0  0  0
   -5.4975    0.0155    1.4610 H   0  0  0  0  0  0  0  0  0  0  0  0
   -3.6571    1.5746    0.9674 H   0  0  0  0  0  0  0  0  0  0  0  0
  1  5  1  0  0  0  0
  2  1  1  0  0  0  0
  2  3  2  0  0  0  0
  3  4  1  0  0  0  0
  4 27  1  0  0  0  0
  5  4  2  0  0  0  0
  5  6  1  0  0  0  0
  6  7  1  0  0  0  0
  6 28  1  1  0  0  0
  7 29  1  0  0  0  0
  8  9  1  0  0  0  0
  8  6  1  0  0  0  0
  9 30  1  0  0  0  0
 10 31  1  0  0  0  0
 10  9  2  0  0  0  0
 11 10  1  0  0  0  0
 12 11  1  0  0  0  0
 13 12  1  0  0  0  0
 13 33  1  0  0  0  0
 14 11  2  0  0  0  0
 14 15  1  0  0  0  0
 15  8  2  0  0  0  0
 16 37  1  6  0  0  0
 16 17  1  0  0  0  0
 16 18  1  0  0  0  0
 16  2  1  0  0  0  0
 18 25  2  0  0  0  0
 19 20  2  0  0  0  0
 19 18  1  0  0  0  0
 20 21  1  0  0  0  0
 21 22  1  0  0  0  0
 21 24  2  0  0  0  0
 22 23  1  0  0  0  0
 23 43  1  0  0  0  0
 23 42  1  0  0  0  0
 24 44  1  0  0  0  0
 25 24  1  0  0  0  0
 25 45  1  0  0  0  0
 26  3  1  0  0  0  0
 32 13  1  0  0  0  0
 34 13  1  0  0  0  0
 35 14  1  0  0  0  0
 36 15  1  0  0  0  0
 38 17  1  0  0  0  0
 39 19  1  0  0  0  0
 40 20  1  0  0  0  0
 41 23  1  0  0  0  0
M  END
