omegapdb_2f7p_19.log
 OpenBabel09261812563D

 34 35  0  0  1  0  0  0  0  0999 V2000
   -0.9634    0.0920   -0.8552 C   0  0  1  0  0  0  0  0  0  0  0  0
    0.4829    0.1071   -0.8339 N   0  0  0  0  0  0  0  0  0  0  0  0
    1.1622   -0.0349    0.4490 C   0  0  0  0  0  0  0  0  0  0  0  0
    2.6634   -0.0797    0.2595 C   0  0  0  0  0  0  0  0  0  0  0  0
    3.2250   -0.7773   -0.8121 C   0  0  0  0  0  0  0  0  0  0  0  0
    4.6053   -0.8398   -0.9686 C   0  0  0  0  0  0  0  0  0  0  0  0
    5.4448   -0.2073   -0.0549 C   0  0  0  0  0  0  0  0  0  0  0  0
    4.8937    0.4906    1.0148 C   0  0  0  0  0  0  0  0  0  0  0  0
    3.5113    0.5561    1.1660 C   0  0  0  0  0  0  0  0  0  0  0  0
   -1.6238   -1.2807   -0.6664 C   0  0  1  0  0  0  0  0  0  0  0  0
   -1.2773   -1.9794    0.5243 O   0  0  0  0  0  0  0  0  0  0  0  0
   -3.1101   -0.9039   -0.5953 C   0  0  1  0  0  0  0  0  0  0  0  0
   -3.9095   -1.9399   -0.0685 O   0  0  0  0  0  0  0  0  0  0  0  0
   -3.1059    0.3309    0.3455 C   0  0  1  0  0  0  0  0  0  0  0  0
   -3.1291   -0.1381    1.6882 O   0  0  0  0  0  0  0  0  0  0  0  0
   -1.7425    1.0179    0.1219 C   0  0  2  0  0  0  0  0  0  0  0  0
   -1.9532    2.7217   -0.4812 S   0  0  0  0  0  0  0  0  0  0  0  0
   -1.2476    0.3975   -1.8714 H   0  0  0  0  0  0  0  0  0  0  0  0
    0.8327    0.9284   -1.3174 H   0  0  0  0  0  0  0  0  0  0  0  0
    0.8190   -0.9717    0.8996 H   0  0  0  0  0  0  0  0  0  0  0  0
    0.9233    0.7719    1.1656 H   0  0  0  0  0  0  0  0  0  0  0  0
    2.5636   -1.2634   -1.5245 H   0  0  0  0  0  0  0  0  0  0  0  0
    5.0288   -1.3852   -1.8086 H   0  0  0  0  0  0  0  0  0  0  0  0
    6.5237   -0.2563   -0.1789 H   0  0  0  0  0  0  0  0  0  0  0  0
    5.5401    0.9927    1.7304 H   0  0  0  0  0  0  0  0  0  0  0  0
    3.0848    1.1102    2.0007 H   0  0  0  0  0  0  0  0  0  0  0  0
   -1.3784   -1.9561   -1.4901 H   0  0  0  0  0  0  0  0  0  0  0  0
   -1.5869   -1.4342    1.2714 H   0  0  0  0  0  0  0  0  0  0  0  0
   -3.4902   -0.6275   -1.5857 H   0  0  0  0  0  0  0  0  0  0  0  0
   -3.2803   -2.5846    0.2974 H   0  0  0  0  0  0  0  0  0  0  0  0
   -3.9592    0.9985    0.1648 H   0  0  0  0  0  0  0  0  0  0  0  0
   -3.8386   -0.8034    1.6997 H   0  0  0  0  0  0  0  0  0  0  0  0
   -1.2521    1.0615    1.0983 H   0  0  0  0  0  0  0  0  0  0  0  0
   -0.6439    3.0006   -0.5914 H   0  0  0  0  0  0  0  0  0  0  0  0
  1  2  1  0  0  0  0
  1 10  1  1  0  0  0
  2  3  1  0  0  0  0
  3 20  1  0  0  0  0
  3 21  1  0  0  0  0
  4  3  1  0  0  0  0
  4  9  2  0  0  0  0
  5  4  1  0  0  0  0
  6  5  2  0  0  0  0
  6  7  1  0  0  0  0
  7  8  2  0  0  0  0
  8  9  1  0  0  0  0
  8 25  1  0  0  0  0
  9 26  1  0  0  0  0
 10 12  1  1  0  0  0
 10 11  1  0  0  0  0
 11 28  1  0  0  0  0
 12 13  1  0  0  0  0
 12 14  1  1  0  0  0
 13 30  1  0  0  0  0
 14 16  1  6  0  0  0
 14 15  1  0  0  0  0
 15 32  1  0  0  0  0
 16  1  1  6  0  0  0
 16 33  1  0  0  0  0
 17 16  1  0  0  0  0
 18  1  1  0  0  0  0
 19  2  1  0  0  0  0
 22  5  1  0  0  0  0
 23  6  1  0  0  0  0
 24  7  1  0  0  0  0
 27 10  1  0  0  0  0
 29 12  1  0  0  0  0
 31 14  1  0  0  0  0
 34 17  1  0  0  0  0
M  END
