omegacsd_FABSOQ10_08.log
 OpenBabel09261812563D

 45 47  0  0  1  0  0  0  0  0999 V2000
   -0.6404   -0.4535   -0.9775 S   0  0  0  0  0  0  0  0  0  0  0  0
   -1.1233   -1.3734    0.4080 C   0  0  0  0  0  0  0  0  0  0  0  0
   -0.0945   -1.4952    1.2921 C   0  0  0  0  0  0  0  0  0  0  0  0
    1.1034   -0.8518    0.8525 C   0  0  0  0  0  0  0  0  0  0  0  0
    0.9711   -0.2613   -0.3699 C   0  0  0  0  0  0  0  0  0  0  0  0
    1.9580    0.5877   -1.1402 C   0  0  1  0  0  0  0  0  0  0  0  0
    1.5422    1.9462   -1.1304 O   0  0  0  0  0  0  0  0  0  0  0  0
    3.3898    0.4098   -0.6520 C   0  0  0  0  0  0  0  0  0  0  0  0
    4.1610    1.5046   -0.2904 C   0  0  0  0  0  0  0  0  0  0  0  0
    5.4844    1.3573    0.1311 C   0  0  0  0  0  0  0  0  0  0  0  0
    6.0523    0.0877    0.1806 C   0  0  0  0  0  0  0  0  0  0  0  0
    7.3274   -0.1778    0.5709 O   0  0  0  0  0  0  0  0  0  0  0  0
    8.1321    0.9141    0.9590 C   0  0  0  0  0  0  0  0  0  0  0  0
    5.2891   -1.0247   -0.1962 C   0  0  0  0  0  0  0  0  0  0  0  0
    3.9792   -0.8610   -0.6064 C   0  0  0  0  0  0  0  0  0  0  0  0
   -2.4971   -1.9917    0.5032 C   0  0  2  0  0  0  0  0  0  0  0  0
   -2.6305   -3.0896   -0.3870 O   0  0  0  0  0  0  0  0  0  0  0  0
   -3.6337   -0.9869    0.3437 C   0  0  0  0  0  0  0  0  0  0  0  0
   -4.8379   -1.3790   -0.2496 C   0  0  0  0  0  0  0  0  0  0  0  0
   -5.8964   -0.4941   -0.3668 C   0  0  0  0  0  0  0  0  0  0  0  0
   -5.7790    0.8110    0.1194 C   0  0  0  0  0  0  0  0  0  0  0  0
   -6.8705    1.6051   -0.0442 O   0  0  0  0  0  0  0  0  0  0  0  0
   -6.7876    2.9343    0.4206 C   0  0  0  0  0  0  0  0  0  0  0  0
   -4.5896    1.2144    0.7255 C   0  0  0  0  0  0  0  0  0  0  0  0
   -3.5319    0.3131    0.8296 C   0  0  0  0  0  0  0  0  0  0  0  0
   -0.1832   -2.0391    2.2277 H   0  0  0  0  0  0  0  0  0  0  0  0
    2.0307   -0.8416    1.4158 H   0  0  0  0  0  0  0  0  0  0  0  0
    1.9173    0.3053   -2.1996 H   0  0  0  0  0  0  0  0  0  0  0  0
    1.3476    2.1715   -0.2099 H   0  0  0  0  0  0  0  0  0  0  0  0
    3.7295    2.4989   -0.3579 H   0  0  0  0  0  0  0  0  0  0  0  0
    6.0532    2.2393    0.4064 H   0  0  0  0  0  0  0  0  0  0  0  0
    8.2640    1.6296    0.1369 H   0  0  0  0  0  0  0  0  0  0  0  0
    7.7081    1.4367    1.8264 H   0  0  0  0  0  0  0  0  0  0  0  0
    9.1018    0.4937    1.2299 H   0  0  0  0  0  0  0  0  0  0  0  0
    5.7522   -2.0063   -0.1578 H   0  0  0  0  0  0  0  0  0  0  0  0
    3.3984   -1.7355   -0.8931 H   0  0  0  0  0  0  0  0  0  0  0  0
   -2.5652   -2.4477    1.4986 H   0  0  0  0  0  0  0  0  0  0  0  0
   -2.5522   -2.7442   -1.2877 H   0  0  0  0  0  0  0  0  0  0  0  0
   -4.9379   -2.3953   -0.6196 H   0  0  0  0  0  0  0  0  0  0  0  0
   -6.8319   -0.7904   -0.8323 H   0  0  0  0  0  0  0  0  0  0  0  0
   -7.7494    3.3959    0.1916 H   0  0  0  0  0  0  0  0  0  0  0  0
   -6.6175    2.9724    1.5046 H   0  0  0  0  0  0  0  0  0  0  0  0
   -5.9888    3.4890   -0.0889 H   0  0  0  0  0  0  0  0  0  0  0  0
   -4.4686    2.2205    1.1129 H   0  0  0  0  0  0  0  0  0  0  0  0
   -2.6072    0.6414    1.2994 H   0  0  0  0  0  0  0  0  0  0  0  0
  1  5  1  0  0  0  0
  1  2  1  0  0  0  0
  2 16  1  0  0  0  0
  2  3  2  0  0  0  0
  3 26  1  0  0  0  0
  4  3  1  0  0  0  0
  4 27  1  0  0  0  0
  5  4  2  0  0  0  0
  6 28  1  6  0  0  0
  6  7  1  0  0  0  0
  6  8  1  0  0  0  0
  6  5  1  0  0  0  0
  7 29  1  0  0  0  0
  8 15  2  0  0  0  0
  8  9  1  0  0  0  0
  9 10  2  0  0  0  0
 10 11  1  0  0  0  0
 10 31  1  0  0  0  0
 11 12  1  0  0  0  0
 12 13  1  0  0  0  0
 13 34  1  0  0  0  0
 13 33  1  0  0  0  0
 14 35  1  0  0  0  0
 14 11  2  0  0  0  0
 15 14  1  0  0  0  0
 16 37  1  1  0  0  0
 17 16  1  0  0  0  0
 18 16  1  0  0  0  0
 18 25  2  0  0  0  0
 19 18  1  0  0  0  0
 20 19  2  0  0  0  0
 20 21  1  0  0  0  0
 21 24  2  0  0  0  0
 22 21  1  0  0  0  0
 22 23  1  0  0  0  0
 23 42  1  0  0  0  0
 24 25  1  0  0  0  0
 24 44  1  0  0  0  0
 25 45  1  0  0  0  0
 30  9  1  0  0  0  0
 32 13  1  0  0  0  0
 36 15  1  0  0  0  0
 38 17  1  0  0  0  0
 39 19  1  0  0  0  0
 40 20  1  0  0  0  0
 41 23  1  0  0  0  0
 43 23  1  0  0  0  0
M  END
