omegacsd_GALSEM_09.log
 OpenBabel09261812563D

 39 40  0  0  0  0  0  0  0  0999 V2000
    2.4913    0.1136    1.4987 S   0  0  0  0  0  0  0  0  0  0  0  0
    3.4268    0.9844    2.1696 O   0  0  0  0  0  0  0  0  0  0  0  0
    1.6242   -0.7805    2.2659 O   0  0  0  0  0  0  0  0  0  0  0  0
    3.3264   -0.9816    0.5187 N   0  0  0  0  0  0  0  0  0  0  0  0
    4.3304   -0.6131   -0.3765 C   0  0  0  0  0  0  0  0  0  0  0  0
    4.5284    0.5441   -0.6670 O   0  0  0  0  0  0  0  0  0  0  0  0
    5.1070   -1.7859   -0.9455 C   0  0  0  0  0  0  0  0  0  0  0  0
    6.0925   -1.3468   -2.0195 C   0  0  0  0  0  0  0  0  0  0  0  0
    1.5269    1.0560    0.3714 C   0  0  0  0  0  0  0  0  0  0  0  0
    0.2772    0.6156   -0.1298 C   0  0  0  0  0  0  0  0  0  0  0  0
   -0.3079   -0.5493    0.2823 N   0  0  0  0  0  0  0  0  0  0  0  0
   -1.6336   -0.9663    0.0029 C   0  0  0  0  0  0  0  0  0  0  0  0
   -2.7202   -0.0968    0.1024 C   0  0  0  0  0  0  0  0  0  0  0  0
   -4.0030   -0.5678   -0.1501 C   0  0  0  0  0  0  0  0  0  0  0  0
   -4.2248   -1.9038   -0.4717 C   0  0  0  0  0  0  0  0  0  0  0  0
   -3.1433   -2.7731   -0.5430 C   0  0  0  0  0  0  0  0  0  0  0  0
   -1.8533   -2.3060   -0.3177 C   0  0  0  0  0  0  0  0  0  0  0  0
   -5.1777    0.3626   -0.0073 C   0  0  0  0  0  0  0  0  0  0  0  0
   -5.7253    0.2818    1.2187 F   0  0  0  0  0  0  0  0  0  0  0  0
   -6.1480    0.0685   -0.8914 F   0  0  0  0  0  0  0  0  0  0  0  0
   -4.8254    1.6458   -0.2011 F   0  0  0  0  0  0  0  0  0  0  0  0
   -0.2972    1.4502   -1.1077 C   0  0  0  0  0  0  0  0  0  0  0  0
    0.3397    2.6214   -1.4677 C   0  0  0  0  0  0  0  0  0  0  0  0
    1.4988    3.0612   -0.9594 N   0  0  0  0  0  0  0  0  0  0  0  0
    2.0720    2.2667   -0.0668 C   0  0  0  0  0  0  0  0  0  0  0  0
    3.2351   -1.9412    0.8305 H   0  0  0  0  0  0  0  0  0  0  0  0
    4.3925   -2.5204   -1.3397 H   0  0  0  0  0  0  0  0  0  0  0  0
    5.6284   -2.2785   -0.1136 H   0  0  0  0  0  0  0  0  0  0  0  0
    6.8020   -0.6185   -1.6190 H   0  0  0  0  0  0  0  0  0  0  0  0
    6.6503   -2.2077   -2.3990 H   0  0  0  0  0  0  0  0  0  0  0  0
    5.5719   -0.8730   -2.8560 H   0  0  0  0  0  0  0  0  0  0  0  0
    0.1611   -1.0342    1.0403 H   0  0  0  0  0  0  0  0  0  0  0  0
   -2.5662    0.9415    0.3791 H   0  0  0  0  0  0  0  0  0  0  0  0
   -5.2332   -2.2548   -0.6677 H   0  0  0  0  0  0  0  0  0  0  0  0
   -3.3026   -3.8185   -0.7910 H   0  0  0  0  0  0  0  0  0  0  0  0
   -1.0015   -2.9766   -0.3949 H   0  0  0  0  0  0  0  0  0  0  0  0
   -1.2314    1.1771   -1.5845 H   0  0  0  0  0  0  0  0  0  0  0  0
   -0.1165    3.2606   -2.2221 H   0  0  0  0  0  0  0  0  0  0  0  0
    3.0269    2.5863    0.3413 H   0  0  0  0  0  0  0  0  0  0  0  0
  1  2  2  0  0  0  0
  1  3  2  0  0  0  0
  4 26  1  0  0  0  0
  4  1  1  0  0  0  0
  5  4  1  0  0  0  0
  6  5  2  0  0  0  0
  7  5  1  0  0  0  0
  7 28  1  0  0  0  0
  8 29  1  0  0  0  0
  8  7  1  0  0  0  0
  9  1  1  0  0  0  0
 10 11  1  0  0  0  0
 10  9  2  0  0  0  0
 11 32  1  0  0  0  0
 12 13  1  0  0  0  0
 12 11  1  0  0  0  0
 13 33  1  0  0  0  0
 14 18  1  0  0  0  0
 14 13  2  0  0  0  0
 15 14  1  0  0  0  0
 16 15  2  0  0  0  0
 16 17  1  0  0  0  0
 17 12  2  0  0  0  0
 18 19  1  0  0  0  0
 20 18  1  0  0  0  0
 21 18  1  0  0  0  0
 22 10  1  0  0  0  0
 23 22  2  0  0  0  0
 23 24  1  0  0  0  0
 24 25  2  0  0  0  0
 25 39  1  0  0  0  0
 25  9  1  0  0  0  0
 27  7  1  0  0  0  0
 30  8  1  0  0  0  0
 31  8  1  0  0  0  0
 34 15  1  0  0  0  0
 35 16  1  0  0  0  0
 36 17  1  0  0  0  0
 37 22  1  0  0  0  0
 38 23  1  0  0  0  0
M  END
