omegacsd_DIAVER_03.log
 OpenBabel09261812563D

 35 36  0  0  0  0  0  0  0  0999 V2000
    4.2429    0.4509   -1.0208 N   0  0  0  0  0  0  0  0  0  0  0  0
    4.4014    0.3998    0.3055 C   0  0  0  0  0  0  0  0  0  0  0  0
    3.5189   -0.0505    1.2078 N   0  0  0  0  0  0  0  0  0  0  0  0
    2.3726   -0.5292    0.7272 C   0  0  0  0  0  0  0  0  0  0  0  0
    2.0866   -0.5628   -0.6588 C   0  0  0  0  0  0  0  0  0  0  0  0
    3.0810   -0.0402   -1.4618 C   0  0  0  0  0  0  0  0  0  0  0  0
    0.8115   -1.1504   -1.2033 C   0  0  0  0  0  0  0  0  0  0  0  0
   -0.4606   -0.4320   -0.7786 C   0  0  0  0  0  0  0  0  0  0  0  0
   -1.5956   -1.1763   -0.4156 C   0  0  0  0  0  0  0  0  0  0  0  0
   -2.7801   -0.5524   -0.0498 C   0  0  0  0  0  0  0  0  0  0  0  0
   -2.8489    0.8598   -0.0361 C   0  0  0  0  0  0  0  0  0  0  0  0
   -1.7265    1.5938   -0.3885 C   0  0  0  0  0  0  0  0  0  0  0  0
   -0.5393    0.9507   -0.7547 C   0  0  0  0  0  0  0  0  0  0  0  0
   -4.0439    1.3829    0.3396 O   0  0  0  0  0  0  0  0  0  0  0  0
   -4.1507    2.7879    0.3752 C   0  0  0  0  0  0  0  0  0  0  0  0
   -3.9183   -1.1943    0.3152 O   0  0  0  0  0  0  0  0  0  0  0  0
   -3.8978   -2.6038    0.3147 C   0  0  0  0  0  0  0  0  0  0  0  0
    1.4859   -1.0317    1.6419 N   0  0  0  0  0  0  0  0  0  0  0  0
    5.5999    0.8366    0.7983 N   0  0  0  0  0  0  0  0  0  0  0  0
    2.9377   -0.0154   -2.5440 H   0  0  0  0  0  0  0  0  0  0  0  0
    0.7346   -2.2049   -0.9027 H   0  0  0  0  0  0  0  0  0  0  0  0
    0.8740   -1.1539   -2.2998 H   0  0  0  0  0  0  0  0  0  0  0  0
   -1.5362   -2.2612   -0.4322 H   0  0  0  0  0  0  0  0  0  0  0  0
   -1.7586    2.6785   -0.3801 H   0  0  0  0  0  0  0  0  0  0  0  0
    0.3315    1.5462   -1.0181 H   0  0  0  0  0  0  0  0  0  0  0  0
   -5.1706    3.0039    0.6972 H   0  0  0  0  0  0  0  0  0  0  0  0
   -3.4431    3.2275    1.0910 H   0  0  0  0  0  0  0  0  0  0  0  0
   -3.9819    3.2311   -0.6152 H   0  0  0  0  0  0  0  0  0  0  0  0
   -3.6881   -3.0040   -0.6860 H   0  0  0  0  0  0  0  0  0  0  0  0
   -4.8943   -2.9192    0.6276 H   0  0  0  0  0  0  0  0  0  0  0  0
   -3.1547   -2.9962    1.0218 H   0  0  0  0  0  0  0  0  0  0  0  0
    1.7021   -0.7952    2.5997 H   0  0  0  0  0  0  0  0  0  0  0  0
    0.5049   -1.0061    1.4003 H   0  0  0  0  0  0  0  0  0  0  0  0
    6.1546    1.4036    0.1772 H   0  0  0  0  0  0  0  0  0  0  0  0
    5.6316    1.0505    1.7820 H   0  0  0  0  0  0  0  0  0  0  0  0
  1  2  2  0  0  0  0
  2 19  1  0  0  0  0
  2  3  1  0  0  0  0
  4  3  2  0  0  0  0
  4 18  1  0  0  0  0
  5  4  1  0  0  0  0
  6  1  1  0  0  0  0
  6  5  2  0  0  0  0
  7 21  1  0  0  0  0
  7  8  1  0  0  0  0
  7  5  1  0  0  0  0
  8 13  2  0  0  0  0
  8  9  1  0  0  0  0
  9 10  2  0  0  0  0
 10 11  1  0  0  0  0
 10 16  1  0  0  0  0
 11 14  1  0  0  0  0
 12 24  1  0  0  0  0
 12 11  2  0  0  0  0
 13 12  1  0  0  0  0
 14 15  1  0  0  0  0
 15 26  1  0  0  0  0
 15 27  1  0  0  0  0
 17 16  1  0  0  0  0
 17 30  1  0  0  0  0
 17 31  1  0  0  0  0
 18 32  1  0  0  0  0
 19 35  1  0  0  0  0
 20  6  1  0  0  0  0
 22  7  1  0  0  0  0
 23  9  1  0  0  0  0
 25 13  1  0  0  0  0
 28 15  1  0  0  0  0
 29 17  1  0  0  0  0
 33 18  1  0  0  0  0
 34 19  1  0  0  0  0
M  END
