omegapdb_1v2k_11.log
 OpenBabel09261812563D

 61 65  0  0  0  0  0  0  0  0999 V2000
   10.3600   -1.4887   -0.9259 N   0  0  0  0  0  0  0  0  0  0  0  0
    9.8024   -1.8958    0.2193 C   0  0  0  0  0  0  0  0  0  0  0  0
    8.5040   -1.6165    0.6094 C   0  0  0  0  0  0  0  0  0  0  0  0
    7.6752   -0.8535   -0.2320 C   0  0  0  0  0  0  0  0  0  0  0  0
    8.2532   -0.4271   -1.4366 C   0  0  0  0  0  0  0  0  0  0  0  0
    9.5723   -0.7647   -1.7181 C   0  0  0  0  0  0  0  0  0  0  0  0
    6.3723   -0.5213    0.1457 N   0  0  0  0  0  0  0  0  0  0  0  0
    5.6190    0.3707   -0.7209 C   0  0  0  0  0  0  0  0  0  0  0  0
    4.4319    0.9854    0.0168 C   0  0  0  0  0  0  0  0  0  0  0  0
    3.5231   -0.0902    0.6297 C   0  0  0  0  0  0  0  0  0  0  0  0
    4.3737   -0.9964    1.5189 C   0  0  0  0  0  0  0  0  0  0  0  0
    5.5462   -1.5745    0.7355 C   0  0  0  0  0  0  0  0  0  0  0  0
    2.4181    0.5763    1.4439 C   0  0  0  0  0  0  0  0  0  0  0  0
    2.5847    0.8377    2.6274 O   0  0  0  0  0  0  0  0  0  0  0  0
    1.2577    0.9057    0.7958 N   0  0  0  0  0  0  0  0  0  0  0  0
    0.1778    1.5100    1.5705 C   0  0  0  0  0  0  0  0  0  0  0  0
   -1.1610    0.9530    1.1105 C   0  0  0  0  0  0  0  0  0  0  0  0
   -1.3852    1.1967   -0.3285 N   0  0  0  0  0  0  0  0  0  0  0  0
   -0.1672    1.4661   -1.1113 C   0  0  0  0  0  0  0  0  0  0  0  0
    0.9662    0.5893   -0.5998 C   0  0  0  0  0  0  0  0  0  0  0  0
   -2.6528    2.2216   -0.7069 S   0  0  0  0  0  0  0  0  0  0  0  0
   -2.6024    2.3828   -2.1511 O   0  0  0  0  0  0  0  0  0  0  0  0
   -2.6553    3.3894    0.1667 O   0  0  0  0  0  0  0  0  0  0  0  0
   -4.0686    1.2393   -0.2704 C   0  0  0  0  0  0  0  0  0  0  0  0
   -4.4459    0.2150   -1.0974 C   0  0  0  0  0  0  0  0  0  0  0  0
   -5.5780   -0.5710   -0.7706 C   0  0  0  0  0  0  0  0  0  0  0  0
   -6.3050   -0.2767    0.4128 C   0  0  0  0  0  0  0  0  0  0  0  0
   -5.8876    0.8045    1.2347 C   0  0  0  0  0  0  0  0  0  0  0  0
   -4.7933    1.5559    0.9025 C   0  0  0  0  0  0  0  0  0  0  0  0
   -7.4389   -1.0659    0.7436 C   0  0  0  0  0  0  0  0  0  0  0  0
   -7.8146   -2.0915   -0.0776 C   0  0  0  0  0  0  0  0  0  0  0  0
   -7.1007   -2.3943   -1.2638 C   0  0  0  0  0  0  0  0  0  0  0  0
   -6.0075   -1.6456   -1.5971 C   0  0  0  0  0  0  0  0  0  0  0  0
   -9.2002   -3.0602    0.3226 Cl  0  0  0  0  0  0  0  0  0  0  0  0
   10.4425   -2.4820    0.8777 H   0  0  0  0  0  0  0  0  0  0  0  0
    8.1576   -1.9639    1.5771 H   0  0  0  0  0  0  0  0  0  0  0  0
    7.6945    0.1447   -2.1687 H   0  0  0  0  0  0  0  0  0  0  0  0
   10.0159   -0.4315   -2.6561 H   0  0  0  0  0  0  0  0  0  0  0  0
    5.2648   -0.1563   -1.6277 H   0  0  0  0  0  0  0  0  0  0  0  0
    6.2782    1.1793   -1.0478 H   0  0  0  0  0  0  0  0  0  0  0  0
    4.8015    1.6258    0.8266 H   0  0  0  0  0  0  0  0  0  0  0  0
    3.8765    1.6281   -0.6785 H   0  0  0  0  0  0  0  0  0  0  0  0
    3.0953   -0.6980   -0.1793 H   0  0  0  0  0  0  0  0  0  0  0  0
    4.7373   -0.4153    2.3714 H   0  0  0  0  0  0  0  0  0  0  0  0
    3.7674   -1.8172    1.9193 H   0  0  0  0  0  0  0  0  0  0  0  0
    5.1702   -2.2438   -0.0608 H   0  0  0  0  0  0  0  0  0  0  0  0
    6.1578   -2.1861    1.3996 H   0  0  0  0  0  0  0  0  0  0  0  0
    0.1830    2.6029    1.4663 H   0  0  0  0  0  0  0  0  0  0  0  0
    0.3533    1.2764    2.6221 H   0  0  0  0  0  0  0  0  0  0  0  0
   -1.9591    1.4186    1.6951 H   0  0  0  0  0  0  0  0  0  0  0  0
   -1.2012   -0.1275    1.2915 H   0  0  0  0  0  0  0  0  0  0  0  0
    0.1354    2.5211   -1.0478 H   0  0  0  0  0  0  0  0  0  0  0  0
   -0.3689    1.2377   -2.1593 H   0  0  0  0  0  0  0  0  0  0  0  0
    0.6929   -0.4689   -0.7225 H   0  0  0  0  0  0  0  0  0  0  0  0
    1.8430    0.7834   -1.2245 H   0  0  0  0  0  0  0  0  0  0  0  0
   -3.8857    0.0092   -2.0064 H   0  0  0  0  0  0  0  0  0  0  0  0
   -6.4573    1.0338    2.1319 H   0  0  0  0  0  0  0  0  0  0  0  0
   -4.4766    2.4003    1.5074 H   0  0  0  0  0  0  0  0  0  0  0  0
   -8.0016   -0.8495    1.6472 H   0  0  0  0  0  0  0  0  0  0  0  0
   -7.4341   -3.2155   -1.8904 H   0  0  0  0  0  0  0  0  0  0  0  0
   -5.4521   -1.8655   -2.5057 H   0  0  0  0  0  0  0  0  0  0  0  0
  1  2  2  0  0  0  0
  2  3  1  0  0  0  0
  2 35  1  0  0  0  0
  3 36  1  0  0  0  0
  4  7  1  0  0  0  0
  4  3  2  0  0  0  0
  5  4  1  0  0  0  0
  6  5  2  0  0  0  0
  6  1  1  0  0  0  0
  7 12  1  0  0  0  0
  8  9  1  0  0  0  0
  8  7  1  0  0  0  0
  9 10  1  0  0  0  0
  9 41  1  0  0  0  0
 10 13  1  0  0  0  0
 10 11  1  0  0  0  0
 11 45  1  0  0  0  0
 11 44  1  0  0  0  0
 12 47  1  0  0  0  0
 12 11  1  0  0  0  0
 13 14  2  0  0  0  0
 15 13  1  0  0  0  0
 15 16  1  0  0  0  0
 16 49  1  0  0  0  0
 17 51  1  0  0  0  0
 17 16  1  0  0  0  0
 17 50  1  0  0  0  0
 18 17  1  0  0  0  0
 19 52  1  0  0  0  0
 19 20  1  0  0  0  0
 19 18  1  0  0  0  0
 20 15  1  0  0  0  0
 21 18  1  0  0  0  0
 21 24  1  0  0  0  0
 21 23  2  0  0  0  0
 22 21  2  0  0  0  0
 24 29  2  0  0  0  0
 25 26  2  0  0  0  0
 25 24  1  0  0  0  0
 26 27  1  0  0  0  0
 27 30  1  0  0  0  0
 27 28  2  0  0  0  0
 28 57  1  0  0  0  0
 29 28  1  0  0  0  0
 29 58  1  0  0  0  0
 30 59  1  0  0  0  0
 31 34  1  0  0  0  0
 31 30  2  0  0  0  0
 32 31  1  0  0  0  0
 33 32  2  0  0  0  0
 33 26  1  0  0  0  0
 37  5  1  0  0  0  0
 38  6  1  0  0  0  0
 39  8  1  0  0  0  0
 40  8  1  0  0  0  0
 42  9  1  0  0  0  0
 43 10  1  0  0  0  0
 46 12  1  0  0  0  0
 48 16  1  0  0  0  0
 53 19  1  0  0  0  0
 54 20  1  0  0  0  0
 55 20  1  0  0  0  0
 56 25  1  0  0  0  0
 60 32  1  0  0  0  0
 61 33  1  0  0  0  0
M  END
