omegapdb_1qxw_34.log
 OpenBabel09261812563D

 36 36  0  0  1  0  0  0  0  0999 V2000
    4.2973   -1.5858   -0.6612 C   0  0  0  0  0  0  0  0  0  0  0  0
    4.1589   -1.0959    0.7539 C   0  0  0  0  0  0  0  0  0  0  0  0
    3.7178   -0.2315   -0.3911 C   0  0  0  0  0  0  0  0  0  0  0  0
    2.3045   -0.0703   -0.5804 N   0  0  0  0  0  0  0  0  0  0  0  0
    1.7489    1.0393    0.1760 C   0  0  0  0  0  0  0  0  0  0  0  0
    0.2465    1.1831   -0.0715 C   0  0  0  0  0  0  0  0  0  0  0  0
   -0.5512   -0.0753    0.3621 C   0  0  1  0  0  0  0  0  0  0  0  0
   -0.5525   -0.0786    1.8334 N   0  0  0  0  0  0  0  0  0  0  0  0
   -1.9862   -0.0366   -0.1624 C   0  0  0  0  0  0  0  0  0  0  0  0
   -2.8122   -1.2772    0.1867 C   0  0  0  0  0  0  0  0  0  0  0  0
   -4.1453   -1.3541   -0.5630 C   0  0  0  0  0  0  0  0  0  0  0  0
   -5.0988   -0.2041   -0.2422 C   0  0  0  0  0  0  0  0  0  0  0  0
    0.1067    1.4255   -1.4516 O   0  0  0  0  0  0  0  0  0  0  0  0
   -0.2476    2.2998    0.6209 O   0  0  0  0  0  0  0  0  0  0  0  0
    5.2911   -1.6467   -1.0953 H   0  0  0  0  0  0  0  0  0  0  0  0
    3.6019   -2.3510   -0.9928 H   0  0  0  0  0  0  0  0  0  0  0  0
    5.0568   -0.8192    1.2988 H   0  0  0  0  0  0  0  0  0  0  0  0
    3.3714   -1.5396    1.3568 H   0  0  0  0  0  0  0  0  0  0  0  0
    4.3542    0.6311   -0.6163 H   0  0  0  0  0  0  0  0  0  0  0  0
    2.0996    0.0790   -1.5652 H   0  0  0  0  0  0  0  0  0  0  0  0
    1.9273    0.8632    1.2446 H   0  0  0  0  0  0  0  0  0  0  0  0
    2.2015    2.0145   -0.0692 H   0  0  0  0  0  0  0  0  0  0  0  0
   -0.0373   -0.9493   -0.0627 H   0  0  0  0  0  0  0  0  0  0  0  0
   -1.2639   -0.7091    2.1888 H   0  0  0  0  0  0  0  0  0  0  0  0
    0.3358   -0.4275    2.1827 H   0  0  0  0  0  0  0  0  0  0  0  0
   -2.4769    0.8700    0.2160 H   0  0  0  0  0  0  0  0  0  0  0  0
   -1.9371    0.0513   -1.2546 H   0  0  0  0  0  0  0  0  0  0  0  0
   -3.0239   -1.3090    1.2662 H   0  0  0  0  0  0  0  0  0  0  0  0
   -2.2213   -2.1754   -0.0420 H   0  0  0  0  0  0  0  0  0  0  0  0
   -4.6334   -2.3065   -0.3200 H   0  0  0  0  0  0  0  0  0  0  0  0
   -3.9480   -1.3772   -1.6436 H   0  0  0  0  0  0  0  0  0  0  0  0
   -6.0635   -0.3404   -0.7420 H   0  0  0  0  0  0  0  0  0  0  0  0
   -5.2875   -0.1399    0.8365 H   0  0  0  0  0  0  0  0  0  0  0  0
   -4.6933    0.7607   -0.5657 H   0  0  0  0  0  0  0  0  0  0  0  0
   -0.6957    1.9572   -1.5443 H   0  0  0  0  0  0  0  0  0  0  0  0
   -0.5510    1.9334    1.4744 H   0  0  0  0  0  0  0  0  0  0  0  0
  1  3  1  0  0  0  0
  1  2  1  0  0  0  0
  2 17  1  0  0  0  0
  2 18  1  0  0  0  0
  3  2  1  0  0  0  0
  4  3  1  0  0  0  0
  4  5  1  0  0  0  0
  5 21  1  0  0  0  0
  6  5  1  0  0  0  0
  6  7  1  0  0  0  0
  6 14  1  0  0  0  0
  7 23  1  6  0  0  0
  7  8  1  0  0  0  0
  8 25  1  0  0  0  0
  8 24  1  0  0  0  0
  9 10  1  0  0  0  0
  9 26  1  0  0  0  0
  9  7  1  0  0  0  0
 10 28  1  0  0  0  0
 11 30  1  0  0  0  0
 11 12  1  0  0  0  0
 11 10  1  0  0  0  0
 12 33  1  0  0  0  0
 13  6  1  0  0  0  0
 14 36  1  0  0  0  0
 15  1  1  0  0  0  0
 16  1  1  0  0  0  0
 19  3  1  0  0  0  0
 20  4  1  0  0  0  0
 22  5  1  0  0  0  0
 27  9  1  0  0  0  0
 29 10  1  0  0  0  0
 31 11  1  0  0  0  0
 32 12  1  0  0  0  0
 34 12  1  0  0  0  0
 35 13  1  0  0  0  0
M  END
