omegapdb_1qxw_23.log
 OpenBabel09261812563D

 36 36  0  0  1  0  0  0  0  0999 V2000
    3.6098   -2.0483   -0.2012 C   0  0  0  0  0  0  0  0  0  0  0  0
    4.7414   -1.0522   -0.1246 C   0  0  0  0  0  0  0  0  0  0  0  0
    3.3555   -0.6297    0.2338 C   0  0  0  0  0  0  0  0  0  0  0  0
    2.6605    0.3034   -0.6229 N   0  0  0  0  0  0  0  0  0  0  0  0
    1.2180    0.0823   -0.7186 C   0  0  0  0  0  0  0  0  0  0  0  0
    0.5022    0.8917    0.3713 C   0  0  0  0  0  0  0  0  0  0  0  0
   -1.0113    1.0888    0.1328 C   0  0  1  0  0  0  0  0  0  0  0  0
   -1.3283    1.9668   -0.9866 N   0  0  0  0  0  0  0  0  0  0  0  0
   -1.7598   -0.2368   -0.0010 C   0  0  0  0  0  0  0  0  0  0  0  0
   -3.2767   -0.0777    0.0831 C   0  0  0  0  0  0  0  0  0  0  0  0
   -4.0259   -1.3955   -0.1049 C   0  0  0  0  0  0  0  0  0  0  0  0
   -5.5402   -1.2320   -0.0005 C   0  0  0  0  0  0  0  0  0  0  0  0
    1.0689    2.1683    0.4453 O   0  0  0  0  0  0  0  0  0  0  0  0
    0.7176    0.1928    1.5884 O   0  0  0  0  0  0  0  0  0  0  0  0
    3.2690   -2.3397   -1.1924 H   0  0  0  0  0  0  0  0  0  0  0  0
    3.5612   -2.8392    0.5417 H   0  0  0  0  0  0  0  0  0  0  0  0
    5.1553   -0.6895   -1.0635 H   0  0  0  0  0  0  0  0  0  0  0  0
    5.4762   -1.1517    0.6688 H   0  0  0  0  0  0  0  0  0  0  0  0
    3.1289   -0.4745    1.2840 H   0  0  0  0  0  0  0  0  0  0  0  0
    3.0806    0.3009   -1.5459 H   0  0  0  0  0  0  0  0  0  0  0  0
    0.8777    0.4532   -1.6917 H   0  0  0  0  0  0  0  0  0  0  0  0
    0.9502   -0.9799   -0.6334 H   0  0  0  0  0  0  0  0  0  0  0  0
   -1.3725    1.5942    1.0429 H   0  0  0  0  0  0  0  0  0  0  0  0
   -0.7188    2.7791   -0.9412 H   0  0  0  0  0  0  0  0  0  0  0  0
   -1.1302    1.4958   -1.8665 H   0  0  0  0  0  0  0  0  0  0  0  0
   -1.5001   -0.7035   -0.9653 H   0  0  0  0  0  0  0  0  0  0  0  0
   -1.4073   -0.9198    0.7813 H   0  0  0  0  0  0  0  0  0  0  0  0
   -3.5384    0.3522    1.0613 H   0  0  0  0  0  0  0  0  0  0  0  0
   -3.6046    0.6519   -0.6677 H   0  0  0  0  0  0  0  0  0  0  0  0
   -3.7691   -1.8225   -1.0846 H   0  0  0  0  0  0  0  0  0  0  0  0
   -3.6807   -2.1219    0.6441 H   0  0  0  0  0  0  0  0  0  0  0  0
   -5.8252   -0.8366    0.9817 H   0  0  0  0  0  0  0  0  0  0  0  0
   -6.0597   -2.1860   -0.1411 H   0  0  0  0  0  0  0  0  0  0  0  0
   -5.9117   -0.5319   -0.7580 H   0  0  0  0  0  0  0  0  0  0  0  0
    2.0124    2.0194    0.2323 H   0  0  0  0  0  0  0  0  0  0  0  0
    0.5116    0.8271    2.2896 H   0  0  0  0  0  0  0  0  0  0  0  0
  1  2  1  0  0  0  0
  1  3  1  0  0  0  0
  1 16  1  0  0  0  0
  2  3  1  0  0  0  0
  2 18  1  0  0  0  0
  3 19  1  0  0  0  0
  4  3  1  0  0  0  0
  5 22  1  0  0  0  0
  5  4  1  0  0  0  0
  5  6  1  0  0  0  0
  6 13  1  0  0  0  0
  6 14  1  0  0  0  0
  7  6  1  0  0  0  0
  7 23  1  1  0  0  0
  8 24  1  0  0  0  0
  8  7  1  0  0  0  0
  9 10  1  0  0  0  0
  9  7  1  0  0  0  0
  9 27  1  0  0  0  0
 10 28  1  0  0  0  0
 11 12  1  0  0  0  0
 11 10  1  0  0  0  0
 11 31  1  0  0  0  0
 12 32  1  0  0  0  0
 14 36  1  0  0  0  0
 15  1  1  0  0  0  0
 17  2  1  0  0  0  0
 20  4  1  0  0  0  0
 21  5  1  0  0  0  0
 25  8  1  0  0  0  0
 26  9  1  0  0  0  0
 29 10  1  0  0  0  0
 30 11  1  0  0  0  0
 33 12  1  0  0  0  0
 34 12  1  0  0  0  0
 35 13  1  0  0  0  0
M  END
