omegapdb_1v2k_10.log
 OpenBabel09261812563D

 61 65  0  0  0  0  0  0  0  0999 V2000
  -10.0064    0.2556    1.2662 N   0  0  0  0  0  0  0  0  0  0  0  0
   -9.0470    0.6844    2.0890 C   0  0  0  0  0  0  0  0  0  0  0  0
   -7.7159    0.8553    1.7421 C   0  0  0  0  0  0  0  0  0  0  0  0
   -7.3017    0.5591    0.4287 C   0  0  0  0  0  0  0  0  0  0  0  0
   -8.3080    0.1027   -0.4449 C   0  0  0  0  0  0  0  0  0  0  0  0
   -9.6065   -0.0217    0.0224 C   0  0  0  0  0  0  0  0  0  0  0  0
   -5.9977    0.7048    0.0250 N   0  0  0  0  0  0  0  0  0  0  0  0
   -4.9333    0.9004    0.9954 C   0  0  0  0  0  0  0  0  0  0  0  0
   -3.6121    0.3728    0.4424 C   0  0  0  0  0  0  0  0  0  0  0  0
   -3.1791    1.1276   -0.8360 C   0  0  0  0  0  0  0  0  0  0  0  0
   -4.4170    1.5931   -1.6236 C   0  0  0  0  0  0  0  0  0  0  0  0
   -5.6317    0.7006   -1.3879 C   0  0  0  0  0  0  0  0  0  0  0  0
   -2.3204    0.1957   -1.6910 C   0  0  0  0  0  0  0  0  0  0  0  0
   -2.7964   -0.3949   -2.6521 O   0  0  0  0  0  0  0  0  0  0  0  0
   -1.0190   -0.0203   -1.3327 N   0  0  0  0  0  0  0  0  0  0  0  0
   -0.2923    0.6229   -0.2543 C   0  0  0  0  0  0  0  0  0  0  0  0
    0.3444   -0.4115    0.6734 C   0  0  0  0  0  0  0  0  0  0  0  0
    1.0224   -1.4384   -0.1292 N   0  0  0  0  0  0  0  0  0  0  0  0
    1.1223   -1.2004   -1.5659 C   0  0  0  0  0  0  0  0  0  0  0  0
   -0.2779   -0.9983   -2.1325 C   0  0  0  0  0  0  0  0  0  0  0  0
    2.2002   -2.3289    0.6209 S   0  0  0  0  0  0  0  0  0  0  0  0
    1.7155   -2.5817    1.9656 O   0  0  0  0  0  0  0  0  0  0  0  0
    2.5665   -3.3933   -0.2955 O   0  0  0  0  0  0  0  0  0  0  0  0
    3.6048   -1.2427    0.7646 C   0  0  0  0  0  0  0  0  0  0  0  0
    4.5012   -1.1652   -0.2691 C   0  0  0  0  0  0  0  0  0  0  0  0
    5.5941   -0.2647   -0.1920 C   0  0  0  0  0  0  0  0  0  0  0  0
    5.7415    0.5457    0.9637 C   0  0  0  0  0  0  0  0  0  0  0  0
    4.7996    0.4233    2.0216 C   0  0  0  0  0  0  0  0  0  0  0  0
    3.7528   -0.4526    1.9321 C   0  0  0  0  0  0  0  0  0  0  0  0
    6.8335    1.4501    1.0421 C   0  0  0  0  0  0  0  0  0  0  0  0
    7.7257    1.5277    0.0096 C   0  0  0  0  0  0  0  0  0  0  0  0
    7.5939    0.7219   -1.1482 C   0  0  0  0  0  0  0  0  0  0  0  0
    6.5489   -0.1542   -1.2395 C   0  0  0  0  0  0  0  0  0  0  0  0
    9.0628    2.6330    0.0991 Cl  0  0  0  0  0  0  0  0  0  0  0  0
   -9.3627    0.9189    3.1056 H   0  0  0  0  0  0  0  0  0  0  0  0
   -7.0230    1.2420    2.4817 H   0  0  0  0  0  0  0  0  0  0  0  0
   -8.0836   -0.1841   -1.4664 H   0  0  0  0  0  0  0  0  0  0  0  0
  -10.3802   -0.3802   -0.6563 H   0  0  0  0  0  0  0  0  0  0  0  0
   -4.8292    1.9607    1.2825 H   0  0  0  0  0  0  0  0  0  0  0  0
   -5.1784    0.3433    1.9059 H   0  0  0  0  0  0  0  0  0  0  0  0
   -3.7416   -0.6922    0.2132 H   0  0  0  0  0  0  0  0  0  0  0  0
   -2.8433    0.4372    1.2216 H   0  0  0  0  0  0  0  0  0  0  0  0
   -2.6027    2.0165   -0.5539 H   0  0  0  0  0  0  0  0  0  0  0  0
   -4.6744    2.6145   -1.3196 H   0  0  0  0  0  0  0  0  0  0  0  0
   -4.1940    1.6080   -2.6932 H   0  0  0  0  0  0  0  0  0  0  0  0
   -5.4235   -0.3138   -1.7573 H   0  0  0  0  0  0  0  0  0  0  0  0
   -6.4727    1.0966   -1.9653 H   0  0  0  0  0  0  0  0  0  0  0  0
    0.4823    1.2856   -0.6639 H   0  0  0  0  0  0  0  0  0  0  0  0
   -0.9625    1.2478    0.3355 H   0  0  0  0  0  0  0  0  0  0  0  0
   -0.4170   -0.8944    1.2937 H   0  0  0  0  0  0  0  0  0  0  0  0
    1.0471    0.1081    1.3398 H   0  0  0  0  0  0  0  0  0  0  0  0
    1.7733   -0.3402   -1.7900 H   0  0  0  0  0  0  0  0  0  0  0  0
    1.5638   -2.0863   -2.0257 H   0  0  0  0  0  0  0  0  0  0  0  0
   -0.2201   -0.6658   -3.1755 H   0  0  0  0  0  0  0  0  0  0  0  0
   -0.8234   -1.9467   -2.1220 H   0  0  0  0  0  0  0  0  0  0  0  0
    4.3917   -1.8114   -1.1370 H   0  0  0  0  0  0  0  0  0  0  0  0
    4.9321    1.0286    2.9151 H   0  0  0  0  0  0  0  0  0  0  0  0
    3.0503   -0.5801    2.7503 H   0  0  0  0  0  0  0  0  0  0  0  0
    6.9556    2.0738    1.9232 H   0  0  0  0  0  0  0  0  0  0  0  0
    8.3265    0.8104   -1.9441 H   0  0  0  0  0  0  0  0  0  0  0  0
    6.4379   -0.7807   -2.1213 H   0  0  0  0  0  0  0  0  0  0  0  0
  1  2  2  0  0  0  0
  2 35  1  0  0  0  0
  3  2  1  0  0  0  0
  3 36  1  0  0  0  0
  4  3  2  0  0  0  0
  5  6  2  0  0  0  0
  5  4  1  0  0  0  0
  6  1  1  0  0  0  0
  7  4  1  0  0  0  0
  7  8  1  0  0  0  0
  8 39  1  0  0  0  0
  8 40  1  0  0  0  0
  9  8  1  0  0  0  0
  9 42  1  0  0  0  0
 10 43  1  0  0  0  0
 10  9  1  0  0  0  0
 11 12  1  0  0  0  0
 11 44  1  0  0  0  0
 11 10  1  0  0  0  0
 12  7  1  0  0  0  0
 13 15  1  0  0  0  0
 13 10  1  0  0  0  0
 14 13  2  0  0  0  0
 15 16  1  0  0  0  0
 16 49  1  0  0  0  0
 16 17  1  0  0  0  0
 17 50  1  0  0  0  0
 17 51  1  0  0  0  0
 18 21  1  0  0  0  0
 18 17  1  0  0  0  0
 19 18  1  0  0  0  0
 20 55  1  0  0  0  0
 20 19  1  0  0  0  0
 20 15  1  0  0  0  0
 21 24  1  0  0  0  0
 21 22  2  0  0  0  0
 23 21  2  0  0  0  0
 24 29  2  0  0  0  0
 25 26  2  0  0  0  0
 25 24  1  0  0  0  0
 26 27  1  0  0  0  0
 27 30  1  0  0  0  0
 27 28  2  0  0  0  0
 28 57  1  0  0  0  0
 29 28  1  0  0  0  0
 29 58  1  0  0  0  0
 30 59  1  0  0  0  0
 31 34  1  0  0  0  0
 31 30  2  0  0  0  0
 32 31  1  0  0  0  0
 33 32  2  0  0  0  0
 33 26  1  0  0  0  0
 37  5  1  0  0  0  0
 38  6  1  0  0  0  0
 41  9  1  0  0  0  0
 45 11  1  0  0  0  0
 46 12  1  0  0  0  0
 47 12  1  0  0  0  0
 48 16  1  0  0  0  0
 52 19  1  0  0  0  0
 53 19  1  0  0  0  0
 54 20  1  0  0  0  0
 56 25  1  0  0  0  0
 60 32  1  0  0  0  0
 61 33  1  0  0  0  0
M  END
