omegapdb_1xom_03.log
 OpenBabel09261812563D

 50 52  0  0  1  0  0  0  0  0999 V2000
   -6.0472   -0.3489   -0.1090 O   0  0  0  0  0  0  0  0  0  0  0  0
   -5.2187   -1.3862    0.1342 C   0  0  0  0  0  0  0  0  0  0  0  0
   -5.6280   -2.5087    0.3109 O   0  0  0  0  0  0  0  0  0  0  0  0
   -3.7678   -0.9639    0.1539 C   0  0  1  0  0  0  0  0  0  0  0  0
   -3.3326   -0.3941   -1.2055 C   0  0  0  0  0  0  0  0  0  0  0  0
   -1.8565    0.0033   -1.1844 C   0  0  0  0  0  0  0  0  0  0  0  0
   -1.5230    1.0132   -0.0554 C   0  0  2  0  0  0  0  0  0  0  0  0
   -2.0227    0.4548    1.3023 C   0  0  0  0  0  0  0  0  0  0  0  0
   -3.4983    0.0558    1.2717 C   0  0  0  0  0  0  0  0  0  0  0  0
   -2.2786    2.2533   -0.3318 C   0  0  0  0  0  0  0  0  0  0  0  0
   -2.9016    3.2047   -0.5463 N   0  0  0  0  0  0  0  0  0  0  0  0
   -0.0221    1.3156   -0.0096 C   0  0  0  0  0  0  0  0  0  0  0  0
    0.4913    2.5881   -0.1810 C   0  0  0  0  0  0  0  0  0  0  0  0
    1.8734    2.8124   -0.1373 C   0  0  0  0  0  0  0  0  0  0  0  0
    2.7542    1.7668    0.0759 C   0  0  0  0  0  0  0  0  0  0  0  0
    4.1044    1.8761    0.1332 O   0  0  0  0  0  0  0  0  0  0  0  0
    4.6545    3.1645   -0.0303 C   0  0  0  0  0  0  0  0  0  0  0  0
    2.2415    0.4581    0.2541 C   0  0  0  0  0  0  0  0  0  0  0  0
    0.8724    0.2524    0.2109 C   0  0  0  0  0  0  0  0  0  0  0  0
    3.1729   -0.5027    0.4641 O   0  0  0  0  0  0  0  0  0  0  0  0
    2.7448   -1.8532    0.6485 C   0  0  0  0  0  0  0  0  0  0  0  0
    2.2788   -2.4857   -0.6847 C   0  0  0  0  0  0  0  0  0  0  0  0
    3.4507   -3.3709   -1.1720 C   0  0  0  0  0  0  0  0  0  0  0  0
    4.6493   -2.9568   -0.3071 C   0  0  0  0  0  0  0  0  0  0  0  0
    3.9978   -2.6349    1.0392 C   0  0  0  0  0  0  0  0  0  0  0  0
   -6.9469   -0.7153   -0.1018 H   0  0  0  0  0  0  0  0  0  0  0  0
   -3.2022   -1.8814    0.3585 H   0  0  0  0  0  0  0  0  0  0  0  0
   -3.4971   -1.1370   -1.9949 H   0  0  0  0  0  0  0  0  0  0  0  0
   -3.9543    0.4766   -1.4483 H   0  0  0  0  0  0  0  0  0  0  0  0
   -1.5582    0.4313   -2.1475 H   0  0  0  0  0  0  0  0  0  0  0  0
   -1.2387   -0.8898   -1.0279 H   0  0  0  0  0  0  0  0  0  0  0  0
   -1.8401    1.1992    2.0849 H   0  0  0  0  0  0  0  0  0  0  0  0
   -1.4093   -0.4213    1.5474 H   0  0  0  0  0  0  0  0  0  0  0  0
   -3.7801   -0.3674    2.2429 H   0  0  0  0  0  0  0  0  0  0  0  0
   -4.1256    0.9413    1.1118 H   0  0  0  0  0  0  0  0  0  0  0  0
   -0.1711    3.4310   -0.3562 H   0  0  0  0  0  0  0  0  0  0  0  0
    2.2447    3.8223   -0.2758 H   0  0  0  0  0  0  0  0  0  0  0  0
    4.4134    3.5831   -1.0162 H   0  0  0  0  0  0  0  0  0  0  0  0
    4.3031    3.8537    0.7487 H   0  0  0  0  0  0  0  0  0  0  0  0
    5.7352    3.0429    0.0562 H   0  0  0  0  0  0  0  0  0  0  0  0
    0.4873   -0.7538    0.3411 H   0  0  0  0  0  0  0  0  0  0  0  0
    1.9767   -1.8767    1.4327 H   0  0  0  0  0  0  0  0  0  0  0  0
    2.0459   -1.6936   -1.4033 H   0  0  0  0  0  0  0  0  0  0  0  0
    1.3623   -3.0706   -0.5453 H   0  0  0  0  0  0  0  0  0  0  0  0
    3.6404   -3.2559   -2.2435 H   0  0  0  0  0  0  0  0  0  0  0  0
    3.2202   -4.4287   -0.9970 H   0  0  0  0  0  0  0  0  0  0  0  0
    5.4173   -3.7338   -0.2418 H   0  0  0  0  0  0  0  0  0  0  0  0
    5.1167   -2.0508   -0.7094 H   0  0  0  0  0  0  0  0  0  0  0  0
    4.6271   -2.0580    1.7223 H   0  0  0  0  0  0  0  0  0  0  0  0
    3.6970   -3.5621    1.5438 H   0  0  0  0  0  0  0  0  0  0  0  0
  1 26  1  0  0  0  0
  1  2  1  0  0  0  0
  2  4  1  0  0  0  0
  2  3  2  0  0  0  0
  4 27  1  1  0  0  0
  4  9  1  0  0  0  0
  5  6  1  0  0  0  0
  5  4  1  0  0  0  0
  6 31  1  0  0  0  0
  6  7  1  0  0  0  0
  7 10  1  6  0  0  0
  7 12  1  0  0  0  0
  7  8  1  0  0  0  0
  8 33  1  0  0  0  0
  8 32  1  0  0  0  0
  9  8  1  0  0  0  0
  9 34  1  0  0  0  0
 11 10  3  0  0  0  0
 12 19  2  0  0  0  0
 13 14  2  0  0  0  0
 13 12  1  0  0  0  0
 14 15  1  0  0  0  0
 15 16  1  0  0  0  0
 15 18  2  0  0  0  0
 17 40  1  0  0  0  0
 17 16  1  0  0  0  0
 17 39  1  0  0  0  0
 18 20  1  0  0  0  0
 19 18  1  0  0  0  0
 19 41  1  0  0  0  0
 20 21  1  0  0  0  0
 21 25  1  0  0  0  0
 21 42  1  0  0  0  0
 22 44  1  0  0  0  0
 22 21  1  0  0  0  0
 23 46  1  0  0  0  0
 23 22  1  0  0  0  0
 23 24  1  0  0  0  0
 24 47  1  0  0  0  0
 24 25  1  0  0  0  0
 25 50  1  0  0  0  0
 25 49  1  0  0  0  0
 28  5  1  0  0  0  0
 29  5  1  0  0  0  0
 30  6  1  0  0  0  0
 35  9  1  0  0  0  0
 36 13  1  0  0  0  0
 37 14  1  0  0  0  0
 38 17  1  0  0  0  0
 43 22  1  0  0  0  0
 45 23  1  0  0  0  0
 48 24  1  0  0  0  0
M  END
