omegapdb_1m5f_05.log
 OpenBabel09261812563D

 25 25  0  0  1  0  0  0  0  0999 V2000
   -2.8933   -2.4001    0.2443 O   0  0  0  0  0  0  0  0  0  0  0  0
   -1.7038   -1.8420   -0.0000 C   0  0  0  0  0  0  0  0  0  0  0  0
   -0.7025   -2.4905   -0.1612 O   0  0  0  0  0  0  0  0  0  0  0  0
   -1.7120   -0.3471   -0.0527 C   0  0  0  0  0  0  0  0  0  0  0  0
   -2.8269    0.2799    0.2174 N   0  0  0  0  0  0  0  0  0  0  0  0
   -2.5551    1.6059    0.0941 O   0  0  0  0  0  0  0  0  0  0  0  0
   -1.2603    1.7688   -0.2542 C   0  0  0  0  0  0  0  0  0  0  0  0
   -0.6520    0.5531   -0.3702 C   0  0  0  0  0  0  0  0  0  0  0  0
    0.7651    0.2528   -0.7568 C   0  0  0  0  0  0  0  0  0  0  0  0
    1.6252   -0.3109    0.3875 C   0  0  2  0  0  0  0  0  0  0  0  0
    1.6474    0.5937    1.5409 N   0  0  0  0  0  0  0  0  0  0  0  0
    3.0499   -0.4665   -0.1683 C   0  0  0  0  0  0  0  0  0  0  0  0
    3.3313   -1.2867   -1.0035 O   0  0  0  0  0  0  0  0  0  0  0  0
    3.9236    0.4215    0.3145 O   0  0  0  0  0  0  0  0  0  0  0  0
   -0.8062    3.1724   -0.4480 C   0  0  0  0  0  0  0  0  0  0  0  0
   -3.5630   -1.7004    0.3448 H   0  0  0  0  0  0  0  0  0  0  0  0
    1.2317    1.1709   -1.1357 H   0  0  0  0  0  0  0  0  0  0  0  0
    0.7922   -0.4829   -1.5653 H   0  0  0  0  0  0  0  0  0  0  0  0
    1.2526   -1.3134    0.6250 H   0  0  0  0  0  0  0  0  0  0  0  0
    1.7716    0.0688    2.4017 H   0  0  0  0  0  0  0  0  0  0  0  0
    0.7653    1.0904    1.6287 H   0  0  0  0  0  0  0  0  0  0  0  0
    3.4111    0.9630    0.9573 H   0  0  0  0  0  0  0  0  0  0  0  0
   -1.2974    3.6212   -1.3171 H   0  0  0  0  0  0  0  0  0  0  0  0
    0.2742    3.2029   -0.6058 H   0  0  0  0  0  0  0  0  0  0  0  0
   -1.0494    3.7802    0.4286 H   0  0  0  0  0  0  0  0  0  0  0  0
  1 16  1  0  0  0  0
  2  1  1  0  0  0  0
  3  2  2  0  0  0  0
  4  2  1  0  0  0  0
  4  5  2  0  0  0  0
  6  5  1  0  0  0  0
  7  6  1  0  0  0  0
  8  7  2  0  0  0  0
  8  4  1  0  0  0  0
  9  8  1  0  0  0  0
  9 10  1  0  0  0  0
 10 19  1  1  0  0  0
 10 11  1  0  0  0  0
 11 21  1  0  0  0  0
 11 20  1  0  0  0  0
 12 14  1  0  0  0  0
 12 10  1  0  0  0  0
 13 12  2  0  0  0  0
 14 22  1  0  0  0  0
 15  7  1  0  0  0  0
 15 25  1  0  0  0  0
 17  9  1  0  0  0  0
 18  9  1  0  0  0  0
 23 15  1  0  0  0  0
 24 15  1  0  0  0  0
M  END
