omegacsd_CUHNEY10_19.log
 OpenBabel09261812563D

 44 47  0  0  1  0  0  0  0  0999 V2000
   -2.3756   -5.0981   -0.0454 Cl  0  0  0  0  0  0  0  0  0  0  0  0
   -1.1966   -3.8274   -0.1064 C   0  0  0  0  0  0  0  0  0  0  0  0
   -0.2471   -3.7066    0.9001 C   0  0  0  0  0  0  0  0  0  0  0  0
    0.6712   -2.7462    0.9134 N   0  0  0  0  0  0  0  0  0  0  0  0
    0.6958   -1.8853   -0.0972 C   0  0  0  0  0  0  0  0  0  0  0  0
    1.6964   -0.8909   -0.0504 N   0  0  0  0  0  0  0  0  0  0  0  0
    2.9493   -1.0438    0.5728 C   0  0  0  0  0  0  0  0  0  0  0  0
    3.4012   -2.0289    1.0906 O   0  0  0  0  0  0  0  0  0  0  0  0
    3.6209    0.2868    0.3859 C   0  0  0  0  0  0  0  0  0  0  0  0
    4.8167    0.6498    0.8325 N   0  0  0  0  0  0  0  0  0  0  0  0
    5.1418    1.9030    0.5117 C   0  0  0  0  0  0  0  0  0  0  0  0
    4.2990    2.7451   -0.2259 C   0  0  0  0  0  0  0  0  0  0  0  0
    3.1006    2.3626   -0.6740 N   0  0  0  0  0  0  0  0  0  0  0  0
    2.7957    1.1149   -0.3475 C   0  0  0  0  0  0  0  0  0  0  0  0
    1.5201    0.3975   -0.7011 C   0  0  2  0  0  0  0  0  0  0  0  0
    0.4057    1.0881   -0.1664 O   0  0  0  0  0  0  0  0  0  0  0  0
   -0.5706    1.4536   -1.0546 C   0  0  0  0  0  0  0  0  0  0  0  0
   -0.5543    1.1485   -2.2346 O   0  0  0  0  0  0  0  0  0  0  0  0
   -1.5235    2.1784   -0.4353 N   0  0  0  0  0  0  0  0  0  0  0  0
   -2.6466    2.6922   -1.1997 C   0  0  0  0  0  0  0  0  0  0  0  0
   -3.9812    2.2717   -0.5690 C   0  0  0  0  0  0  0  0  0  0  0  0
   -3.8685    2.1401    0.8813 N   0  0  0  0  0  0  0  0  0  0  0  0
   -2.8507    3.0139    1.4298 C   0  0  0  0  0  0  0  0  0  0  0  0
   -1.4774    2.5065    0.9899 C   0  0  0  0  0  0  0  0  0  0  0  0
   -5.1552    2.2651    1.5294 C   0  0  0  0  0  0  0  0  0  0  0  0
   -0.2220   -1.9173   -1.1542 C   0  0  0  0  0  0  0  0  0  0  0  0
   -1.1906   -2.9082   -1.1478 C   0  0  0  0  0  0  0  0  0  0  0  0
   -0.2377   -4.4053    1.7342 H   0  0  0  0  0  0  0  0  0  0  0  0
    6.1103    2.2626    0.8518 H   0  0  0  0  0  0  0  0  0  0  0  0
    4.6089    3.7612   -0.4591 H   0  0  0  0  0  0  0  0  0  0  0  0
    1.3846    0.3063   -1.7825 H   0  0  0  0  0  0  0  0  0  0  0  0
   -2.5753    3.7868   -1.2415 H   0  0  0  0  0  0  0  0  0  0  0  0
   -2.5581    2.3179   -2.2197 H   0  0  0  0  0  0  0  0  0  0  0  0
   -4.3161    1.3107   -0.9791 H   0  0  0  0  0  0  0  0  0  0  0  0
   -4.7377    3.0289   -0.8490 H   0  0  0  0  0  0  0  0  0  0  0  0
   -2.9961    4.0746    1.1460 H   0  0  0  0  0  0  0  0  0  0  0  0
   -2.8981    2.9726    2.5229 H   0  0  0  0  0  0  0  0  0  0  0  0
   -1.2330    1.6007    1.5495 H   0  0  0  0  0  0  0  0  0  0  0  0
   -0.7008    3.2557    1.1914 H   0  0  0  0  0  0  0  0  0  0  0  0
   -5.0544    2.0648    2.6012 H   0  0  0  0  0  0  0  0  0  0  0  0
   -5.6095    3.2665    1.4013 H   0  0  0  0  0  0  0  0  0  0  0  0
   -5.8475    1.5260    1.1115 H   0  0  0  0  0  0  0  0  0  0  0  0
   -0.2051   -1.1794   -1.9500 H   0  0  0  0  0  0  0  0  0  0  0  0
   -1.9272   -2.9703   -1.9431 H   0  0  0  0  0  0  0  0  0  0  0  0
  2  1  1  0  0  0  0
  2  3  2  0  0  0  0
  3  4  1  0  0  0  0
  3 28  1  0  0  0  0
  5  6  1  0  0  0  0
  5  4  2  0  0  0  0
  6  7  1  0  0  0  0
  7  8  2  0  0  0  0
  9  7  1  0  0  0  0
  9 10  2  0  0  0  0
 11 10  1  0  0  0  0
 11 29  1  0  0  0  0
 12 11  2  0  0  0  0
 13 14  2  0  0  0  0
 13 12  1  0  0  0  0
 14  9  1  0  0  0  0
 15 31  1  6  0  0  0
 15 14  1  0  0  0  0
 15 16  1  0  0  0  0
 15  6  1  0  0  0  0
 17 19  1  0  0  0  0
 17 16  1  0  0  0  0
 18 17  2  0  0  0  0
 19 24  1  0  0  0  0
 20 21  1  0  0  0  0
 20 19  1  0  0  0  0
 21 22  1  0  0  0  0
 22 23  1  0  0  0  0
 22 25  1  0  0  0  0
 23 37  1  0  0  0  0
 24 39  1  0  0  0  0
 24 23  1  0  0  0  0
 24 38  1  0  0  0  0
 25 40  1  0  0  0  0
 26 27  2  0  0  0  0
 26  5  1  0  0  0  0
 27  2  1  0  0  0  0
 30 12  1  0  0  0  0
 32 20  1  0  0  0  0
 33 20  1  0  0  0  0
 34 21  1  0  0  0  0
 35 21  1  0  0  0  0
 36 23  1  0  0  0  0
 41 25  1  0  0  0  0
 42 25  1  0  0  0  0
 43 26  1  0  0  0  0
 44 27  1  0  0  0  0
M  END
