omegacsd_CEJTIU_06.log
 OpenBabel09261812563D

 41 42  0  0  0  0  0  0  0  0999 V2000
   -6.0411   -0.4051    0.2003 C   0  0  0  0  0  0  0  0  0  0  0  0
   -5.0006    0.6014    0.2239 N   0  0  0  0  0  0  0  0  0  0  0  0
   -5.3530    1.9222   -0.2510 C   0  0  0  0  0  0  0  0  0  0  0  0
   -3.6789    0.1830    0.0784 C   0  0  0  0  0  0  0  0  0  0  0  0
   -3.3120   -1.1645    0.2339 C   0  0  0  0  0  0  0  0  0  0  0  0
   -1.9933   -1.5859    0.1255 C   0  0  0  0  0  0  0  0  0  0  0  0
   -0.9844   -0.6672   -0.1585 C   0  0  0  0  0  0  0  0  0  0  0  0
   -1.3325    0.6711   -0.3337 C   0  0  0  0  0  0  0  0  0  0  0  0
   -2.6496    1.0919   -0.2212 C   0  0  0  0  0  0  0  0  0  0  0  0
    0.3886   -1.0099   -0.2560 N   0  0  0  0  0  0  0  0  0  0  0  0
    0.9063   -2.2611   -0.4057 C   0  0  0  0  0  0  0  0  0  0  0  0
    0.2681   -3.2871   -0.5349 O   0  0  0  0  0  0  0  0  0  0  0  0
    2.3209   -2.3080   -0.4573 N   0  0  0  0  0  0  0  0  0  0  0  0
    3.3260   -1.6556    0.2407 C   0  0  0  0  0  0  0  0  0  0  0  0
    4.4839   -1.9718    0.0439 O   0  0  0  0  0  0  0  0  0  0  0  0
    2.9695   -0.5660    1.2385 C   0  0  0  0  0  0  0  0  0  0  0  0
    2.9690    0.8186    0.6120 C   0  0  0  0  0  0  0  0  0  0  0  0
    3.9923    1.2080   -0.2572 C   0  0  0  0  0  0  0  0  0  0  0  0
    3.9971    2.4834   -0.8104 C   0  0  0  0  0  0  0  0  0  0  0  0
    2.9833    3.3879   -0.5031 C   0  0  0  0  0  0  0  0  0  0  0  0
    1.9630    3.0097    0.3629 C   0  0  0  0  0  0  0  0  0  0  0  0
    1.9561    1.7308    0.9164 C   0  0  0  0  0  0  0  0  0  0  0  0
   -6.0489   -0.9945   -0.7310 H   0  0  0  0  0  0  0  0  0  0  0  0
   -5.9323   -1.0983    1.0414 H   0  0  0  0  0  0  0  0  0  0  0  0
   -7.0119    0.0838    0.3076 H   0  0  0  0  0  0  0  0  0  0  0  0
   -5.1486    2.0640   -1.3249 H   0  0  0  0  0  0  0  0  0  0  0  0
   -4.8082    2.6937    0.3046 H   0  0  0  0  0  0  0  0  0  0  0  0
   -6.4182    2.0908   -0.0782 H   0  0  0  0  0  0  0  0  0  0  0  0
   -4.0641   -1.9167    0.4443 H   0  0  0  0  0  0  0  0  0  0  0  0
   -1.7516   -2.6348    0.2407 H   0  0  0  0  0  0  0  0  0  0  0  0
   -0.5620    1.4037   -0.5705 H   0  0  0  0  0  0  0  0  0  0  0  0
   -2.8666    2.1428   -0.3768 H   0  0  0  0  0  0  0  0  0  0  0  0
    1.0170   -0.2321   -0.4066 H   0  0  0  0  0  0  0  0  0  0  0  0
    2.6540   -3.1476   -0.9162 H   0  0  0  0  0  0  0  0  0  0  0  0
    3.7514   -0.6199    2.0022 H   0  0  0  0  0  0  0  0  0  0  0  0
    2.0082   -0.7627    1.7209 H   0  0  0  0  0  0  0  0  0  0  0  0
    4.7845    0.5017   -0.4946 H   0  0  0  0  0  0  0  0  0  0  0  0
    4.7978    2.7728   -1.4861 H   0  0  0  0  0  0  0  0  0  0  0  0
    2.9899    4.3839   -0.9380 H   0  0  0  0  0  0  0  0  0  0  0  0
    1.1695    3.7093    0.6136 H   0  0  0  0  0  0  0  0  0  0  0  0
    1.1551    1.4389    1.5944 H   0  0  0  0  0  0  0  0  0  0  0  0
  1  2  1  0  0  0  0
  1 25  1  0  0  0  0
  1 24  1  0  0  0  0
  3 28  1  0  0  0  0
  3  2  1  0  0  0  0
  3 27  1  0  0  0  0
  4  2  1  0  0  0  0
  4  5  2  0  0  0  0
  5 29  1  0  0  0  0
  6  5  1  0  0  0  0
  6 30  1  0  0  0  0
  7  6  2  0  0  0  0
  8  9  2  0  0  0  0
  8  7  1  0  0  0  0
  9  4  1  0  0  0  0
 10  7  1  0  0  0  0
 11 10  1  0  0  0  0
 12 11  2  0  0  0  0
 13 11  1  0  0  0  0
 13 14  1  0  0  0  0
 14 16  1  0  0  0  0
 15 14  2  0  0  0  0
 16 36  1  0  0  0  0
 16 35  1  0  0  0  0
 17 22  1  0  0  0  0
 17 16  1  0  0  0  0
 18 17  2  0  0  0  0
 19 20  2  0  0  0  0
 19 18  1  0  0  0  0
 20 21  1  0  0  0  0
 21 40  1  0  0  0  0
 21 22  2  0  0  0  0
 22 41  1  0  0  0  0
 23  1  1  0  0  0  0
 26  3  1  0  0  0  0
 31  8  1  0  0  0  0
 32  9  1  0  0  0  0
 33 10  1  0  0  0  0
 34 13  1  0  0  0  0
 37 18  1  0  0  0  0
 38 19  1  0  0  0  0
 39 20  1  0  0  0  0
M  END
