omegacsd_CUHNEY10_09.log
 OpenBabel09261812563D

 44 47  0  0  1  0  0  0  0  0999 V2000
   -3.4369    3.8433    0.5242 Cl  0  0  0  0  0  0  0  0  0  0  0  0
   -1.8967    3.0693    0.3382 C   0  0  0  0  0  0  0  0  0  0  0  0
   -1.6709    1.8216    0.8992 C   0  0  0  0  0  0  0  0  0  0  0  0
   -0.5091    1.1834    0.7805 N   0  0  0  0  0  0  0  0  0  0  0  0
    0.4751    1.7660    0.0992 C   0  0  0  0  0  0  0  0  0  0  0  0
    1.6583    1.0097    0.0255 N   0  0  0  0  0  0  0  0  0  0  0  0
    2.8531    1.4047   -0.5780 C   0  0  0  0  0  0  0  0  0  0  0  0
    3.0783    2.4492   -1.1445 O   0  0  0  0  0  0  0  0  0  0  0  0
    3.7933    0.2624   -0.3522 C   0  0  0  0  0  0  0  0  0  0  0  0
    5.0583    0.1827   -0.7456 N   0  0  0  0  0  0  0  0  0  0  0  0
    5.6420   -0.9671   -0.4073 C   0  0  0  0  0  0  0  0  0  0  0  0
    4.9740   -1.9840    0.2897 C   0  0  0  0  0  0  0  0  0  0  0  0
    3.7010   -1.8865    0.6782 N   0  0  0  0  0  0  0  0  0  0  0  0
    3.1365   -0.7351    0.3417 C   0  0  0  0  0  0  0  0  0  0  0  0
    1.7146   -0.3269    0.6274 C   0  0  2  0  0  0  0  0  0  0  0  0
    0.8082   -1.1896   -0.0158 O   0  0  0  0  0  0  0  0  0  0  0  0
   -0.1497   -1.7420    0.8024 C   0  0  0  0  0  0  0  0  0  0  0  0
   -0.0141   -1.8668    2.0006 O   0  0  0  0  0  0  0  0  0  0  0  0
   -1.2211   -2.1625    0.0935 N   0  0  0  0  0  0  0  0  0  0  0  0
   -1.5003   -1.7712   -1.2867 C   0  0  0  0  0  0  0  0  0  0  0  0
   -2.9610   -1.3575   -1.3999 C   0  0  0  0  0  0  0  0  0  0  0  0
   -3.8561   -2.4700   -1.0962 N   0  0  0  0  0  0  0  0  0  0  0  0
   -3.2762   -3.4238   -0.1486 C   0  0  0  0  0  0  0  0  0  0  0  0
   -2.3087   -2.7866    0.8442 C   0  0  0  0  0  0  0  0  0  0  0  0
   -5.1671   -1.9885   -0.7120 C   0  0  0  0  0  0  0  0  0  0  0  0
    0.3454    3.0264   -0.5008 C   0  0  0  0  0  0  0  0  0  0  0  0
   -0.8681    3.6802   -0.3716 C   0  0  0  0  0  0  0  0  0  0  0  0
   -2.4507    1.3173    1.4666 H   0  0  0  0  0  0  0  0  0  0  0  0
    6.6815   -1.0971   -0.6990 H   0  0  0  0  0  0  0  0  0  0  0  0
    5.4928   -2.9071    0.5381 H   0  0  0  0  0  0  0  0  0  0  0  0
    1.4845   -0.2974    1.6955 H   0  0  0  0  0  0  0  0  0  0  0  0
   -0.8540   -0.9347   -1.5535 H   0  0  0  0  0  0  0  0  0  0  0  0
   -1.2848   -2.5978   -1.9762 H   0  0  0  0  0  0  0  0  0  0  0  0
   -3.1220   -0.5060   -0.7096 H   0  0  0  0  0  0  0  0  0  0  0  0
   -3.1651   -0.9907   -2.4140 H   0  0  0  0  0  0  0  0  0  0  0  0
   -2.7433   -4.2103   -0.7001 H   0  0  0  0  0  0  0  0  0  0  0  0
   -4.0864   -3.9168    0.3978 H   0  0  0  0  0  0  0  0  0  0  0  0
   -1.8889   -3.5358    1.5212 H   0  0  0  0  0  0  0  0  0  0  0  0
   -2.8200   -2.0381    1.4668 H   0  0  0  0  0  0  0  0  0  0  0  0
   -5.8580   -2.8293   -0.5948 H   0  0  0  0  0  0  0  0  0  0  0  0
   -5.5612   -1.3406   -1.5029 H   0  0  0  0  0  0  0  0  0  0  0  0
   -5.1633   -1.4035    0.2285 H   0  0  0  0  0  0  0  0  0  0  0  0
    1.1735    3.4652   -1.0406 H   0  0  0  0  0  0  0  0  0  0  0  0
   -1.0171    4.6585   -0.8188 H   0  0  0  0  0  0  0  0  0  0  0  0
  2  1  1  0  0  0  0
  2  3  2  0  0  0  0
  3 28  1  0  0  0  0
  4  3  1  0  0  0  0
  5  4  2  0  0  0  0
  6  5  1  0  0  0  0
  6 15  1  0  0  0  0
  7  9  1  0  0  0  0
  7  6  1  0  0  0  0
  8  7  2  0  0  0  0
  9 14  2  0  0  0  0
 10 11  2  0  0  0  0
 10  9  1  0  0  0  0
 11 12  1  0  0  0  0
 12 30  1  0  0  0  0
 12 13  2  0  0  0  0
 14 15  1  0  0  0  0
 14 13  1  0  0  0  0
 15 31  1  1  0  0  0
 16 15  1  0  0  0  0
 16 17  1  0  0  0  0
 17 18  2  0  0  0  0
 19 17  1  0  0  0  0
 19 24  1  0  0  0  0
 20 19  1  0  0  0  0
 21 20  1  0  0  0  0
 21 22  1  0  0  0  0
 21 34  1  0  0  0  0
 22 25  1  0  0  0  0
 22 23  1  0  0  0  0
 23 37  1  0  0  0  0
 23 24  1  0  0  0  0
 24 39  1  0  0  0  0
 24 38  1  0  0  0  0
 25 40  1  0  0  0  0
 25 42  1  0  0  0  0
 26 27  2  0  0  0  0
 26  5  1  0  0  0  0
 27  2  1  0  0  0  0
 29 11  1  0  0  0  0
 32 20  1  0  0  0  0
 33 20  1  0  0  0  0
 35 21  1  0  0  0  0
 36 23  1  0  0  0  0
 41 25  1  0  0  0  0
 43 26  1  0  0  0  0
 44 27  1  0  0  0  0
M  END
