omegacsd_CUHNEY10_16.log
 OpenBabel09261812563D

 44 47  0  0  1  0  0  0  0  0999 V2000
   -2.3755   -5.0981   -0.0455 Cl  0  0  0  0  0  0  0  0  0  0  0  0
   -1.1965   -3.8274   -0.1064 C   0  0  0  0  0  0  0  0  0  0  0  0
   -0.2470   -3.7067    0.9000 C   0  0  0  0  0  0  0  0  0  0  0  0
    0.6713   -2.7462    0.9133 N   0  0  0  0  0  0  0  0  0  0  0  0
    0.6958   -1.8853   -0.0973 C   0  0  0  0  0  0  0  0  0  0  0  0
    1.6964   -0.8909   -0.0504 N   0  0  0  0  0  0  0  0  0  0  0  0
    2.9494   -1.0438    0.5727 C   0  0  0  0  0  0  0  0  0  0  0  0
    3.4013   -2.0290    1.0904 O   0  0  0  0  0  0  0  0  0  0  0  0
    3.6210    0.2868    0.3858 C   0  0  0  0  0  0  0  0  0  0  0  0
    4.8168    0.6498    0.8324 N   0  0  0  0  0  0  0  0  0  0  0  0
    5.1418    1.9030    0.5117 C   0  0  0  0  0  0  0  0  0  0  0  0
    4.2990    2.7452   -0.2258 C   0  0  0  0  0  0  0  0  0  0  0  0
    3.1005    2.3627   -0.6738 N   0  0  0  0  0  0  0  0  0  0  0  0
    2.7957    1.1150   -0.3475 C   0  0  0  0  0  0  0  0  0  0  0  0
    1.5201    0.3976   -0.7011 C   0  0  2  0  0  0  0  0  0  0  0  0
    0.4056    1.0882   -0.1663 O   0  0  0  0  0  0  0  0  0  0  0  0
   -0.5706    1.4538   -1.0546 C   0  0  0  0  0  0  0  0  0  0  0  0
   -0.5542    1.1488   -2.2346 O   0  0  0  0  0  0  0  0  0  0  0  0
   -1.5235    2.1785   -0.4352 N   0  0  0  0  0  0  0  0  0  0  0  0
   -1.4776    2.5063    0.9901 C   0  0  0  0  0  0  0  0  0  0  0  0
   -2.8510    3.0136    1.4299 C   0  0  0  0  0  0  0  0  0  0  0  0
   -3.8687    2.1399    0.8812 N   0  0  0  0  0  0  0  0  0  0  0  0
   -3.9813    2.2715   -0.5692 C   0  0  0  0  0  0  0  0  0  0  0  0
   -2.6466    2.6923   -1.1995 C   0  0  0  0  0  0  0  0  0  0  0  0
   -5.1555    2.2648    1.5292 C   0  0  0  0  0  0  0  0  0  0  0  0
   -0.2221   -1.9172   -1.1541 C   0  0  0  0  0  0  0  0  0  0  0  0
   -1.1906   -2.9081   -1.1477 C   0  0  0  0  0  0  0  0  0  0  0  0
   -0.2374   -4.4055    1.7340 H   0  0  0  0  0  0  0  0  0  0  0  0
    6.1103    2.2626    0.8518 H   0  0  0  0  0  0  0  0  0  0  0  0
    4.6089    3.7613   -0.4588 H   0  0  0  0  0  0  0  0  0  0  0  0
    1.3846    0.3064   -1.7824 H   0  0  0  0  0  0  0  0  0  0  0  0
   -1.2332    1.6003    1.5496 H   0  0  0  0  0  0  0  0  0  0  0  0
   -0.7010    3.2554    1.1918 H   0  0  0  0  0  0  0  0  0  0  0  0
   -2.8984    2.9721    2.5231 H   0  0  0  0  0  0  0  0  0  0  0  0
   -2.9963    4.0743    1.1463 H   0  0  0  0  0  0  0  0  0  0  0  0
   -4.7378    3.0286   -0.8492 H   0  0  0  0  0  0  0  0  0  0  0  0
   -4.3158    1.3105   -0.9794 H   0  0  0  0  0  0  0  0  0  0  0  0
   -2.5754    3.7869   -1.2410 H   0  0  0  0  0  0  0  0  0  0  0  0
   -2.5580    2.3183   -2.2197 H   0  0  0  0  0  0  0  0  0  0  0  0
   -5.6098    3.2663    1.4013 H   0  0  0  0  0  0  0  0  0  0  0  0
   -5.0548    2.0643    2.6009 H   0  0  0  0  0  0  0  0  0  0  0  0
   -5.8477    1.5258    1.1110 H   0  0  0  0  0  0  0  0  0  0  0  0
   -0.2053   -1.1792   -1.9498 H   0  0  0  0  0  0  0  0  0  0  0  0
   -1.9273   -2.9701   -1.9430 H   0  0  0  0  0  0  0  0  0  0  0  0
  2  1  1  0  0  0  0
  2  3  2  0  0  0  0
  3  4  1  0  0  0  0
  3 28  1  0  0  0  0
  5  6  1  0  0  0  0
  5  4  2  0  0  0  0
  6  7  1  0  0  0  0
  7  8  2  0  0  0  0
  9  7  1  0  0  0  0
  9 10  2  0  0  0  0
 11 10  1  0  0  0  0
 11 29  1  0  0  0  0
 12 11  2  0  0  0  0
 13 14  2  0  0  0  0
 13 12  1  0  0  0  0
 14  9  1  0  0  0  0
 15 31  1  6  0  0  0
 15 14  1  0  0  0  0
 15 16  1  0  0  0  0
 15  6  1  0  0  0  0
 17 19  1  0  0  0  0
 17 16  1  0  0  0  0
 18 17  2  0  0  0  0
 19 20  1  0  0  0  0
 20 33  1  0  0  0  0
 20 21  1  0  0  0  0
 20 32  1  0  0  0  0
 21 34  1  0  0  0  0
 22 21  1  0  0  0  0
 22 25  1  0  0  0  0
 23 22  1  0  0  0  0
 24 23  1  0  0  0  0
 24 19  1  0  0  0  0
 25 41  1  0  0  0  0
 26 27  2  0  0  0  0
 26  5  1  0  0  0  0
 27  2  1  0  0  0  0
 30 12  1  0  0  0  0
 35 21  1  0  0  0  0
 36 23  1  0  0  0  0
 37 23  1  0  0  0  0
 38 24  1  0  0  0  0
 39 24  1  0  0  0  0
 40 25  1  0  0  0  0
 42 25  1  0  0  0  0
 43 26  1  0  0  0  0
 44 27  1  0  0  0  0
M  END
