omegapdb_1qxw_31.log
 OpenBabel09261812563D

 36 36  0  0  1  0  0  0  0  0999 V2000
   -4.9222   -0.7640   -0.0882 C   0  0  0  0  0  0  0  0  0  0  0  0
   -3.9349   -1.9040   -0.0824 C   0  0  0  0  0  0  0  0  0  0  0  0
   -3.6123   -0.6047    0.6105 C   0  0  0  0  0  0  0  0  0  0  0  0
   -2.6366    0.3135    0.0851 N   0  0  0  0  0  0  0  0  0  0  0  0
   -1.2592   -0.1525    0.1956 C   0  0  0  0  0  0  0  0  0  0  0  0
   -0.3480    1.0071   -0.2062 C   0  0  0  0  0  0  0  0  0  0  0  0
    1.1571    0.7823    0.0607 C   0  0  1  0  0  0  0  0  0  0  0  0
    1.4921    0.7595    1.4800 N   0  0  0  0  0  0  0  0  0  0  0  0
    1.6888   -0.4539   -0.6688 C   0  0  0  0  0  0  0  0  0  0  0  0
    3.2108   -0.5118   -0.8416 C   0  0  0  0  0  0  0  0  0  0  0  0
    4.0048   -0.8536    0.4203 C   0  0  0  0  0  0  0  0  0  0  0  0
    5.5023   -0.9669    0.1460 C   0  0  0  0  0  0  0  0  0  0  0  0
   -0.7154    2.1571    0.5057 O   0  0  0  0  0  0  0  0  0  0  0  0
   -0.5905    1.2001   -1.5932 O   0  0  0  0  0  0  0  0  0  0  0  0
   -5.0623   -0.2260   -1.0232 H   0  0  0  0  0  0  0  0  0  0  0  0
   -5.8236   -0.8483    0.5115 H   0  0  0  0  0  0  0  0  0  0  0  0
   -3.4157   -2.1174   -1.0140 H   0  0  0  0  0  0  0  0  0  0  0  0
   -4.1560   -2.7805    0.5204 H   0  0  0  0  0  0  0  0  0  0  0  0
   -3.6322   -0.6156    1.6992 H   0  0  0  0  0  0  0  0  0  0  0  0
   -2.8228    0.5134   -0.8945 H   0  0  0  0  0  0  0  0  0  0  0  0
   -1.0657   -0.4130    1.2428 H   0  0  0  0  0  0  0  0  0  0  0  0
   -1.0485   -1.0380   -0.4222 H   0  0  0  0  0  0  0  0  0  0  0  0
    1.6496    1.6693   -0.3695 H   0  0  0  0  0  0  0  0  0  0  0  0
    1.1920   -0.1195    1.8949 H   0  0  0  0  0  0  0  0  0  0  0  0
    0.9745    1.5021    1.9435 H   0  0  0  0  0  0  0  0  0  0  0  0
    1.3505   -1.3612   -0.1427 H   0  0  0  0  0  0  0  0  0  0  0  0
    1.2171   -0.4746   -1.6577 H   0  0  0  0  0  0  0  0  0  0  0  0
    3.5638    0.4497   -1.2433 H   0  0  0  0  0  0  0  0  0  0  0  0
    3.4402   -1.2623   -1.6118 H   0  0  0  0  0  0  0  0  0  0  0  0
    3.6338   -1.8065    0.8261 H   0  0  0  0  0  0  0  0  0  0  0  0
    3.8113   -0.0956    1.1861 H   0  0  0  0  0  0  0  0  0  0  0  0
    5.7129   -1.7423   -0.6011 H   0  0  0  0  0  0  0  0  0  0  0  0
    6.0588   -1.2188    1.0553 H   0  0  0  0  0  0  0  0  0  0  0  0
    5.9041   -0.0215   -0.2383 H   0  0  0  0  0  0  0  0  0  0  0  0
   -1.6842    2.0821    0.6033 H   0  0  0  0  0  0  0  0  0  0  0  0
   -0.2622    2.0873   -1.7955 H   0  0  0  0  0  0  0  0  0  0  0  0
  1  2  1  0  0  0  0
  1 16  1  0  0  0  0
  1  3  1  0  0  0  0
  2 18  1  0  0  0  0
  2  3  1  0  0  0  0
  3 19  1  0  0  0  0
  4  5  1  0  0  0  0
  4  3  1  0  0  0  0
  5 21  1  0  0  0  0
  6  7  1  0  0  0  0
  6  5  1  0  0  0  0
  6 13  1  0  0  0  0
  7 23  1  6  0  0  0
  7  8  1  0  0  0  0
  8 24  1  0  0  0  0
  8 25  1  0  0  0  0
  9 26  1  0  0  0  0
  9  7  1  0  0  0  0
 10  9  1  0  0  0  0
 10 11  1  0  0  0  0
 11 30  1  0  0  0  0
 11 31  1  0  0  0  0
 12 11  1  0  0  0  0
 12 33  1  0  0  0  0
 13 35  1  0  0  0  0
 14  6  1  0  0  0  0
 15  1  1  0  0  0  0
 17  2  1  0  0  0  0
 20  4  1  0  0  0  0
 22  5  1  0  0  0  0
 27  9  1  0  0  0  0
 28 10  1  0  0  0  0
 29 10  1  0  0  0  0
 32 12  1  0  0  0  0
 34 12  1  0  0  0  0
 36 14  1  0  0  0  0
M  END
