omegacsd_SPIRIL_14.log
 OpenBabel09261812563D

 57 60  0  0  1  0  0  0  0  0999 V2000
   -2.4225   -0.2395    1.4154 C   0  0  0  0  0  0  0  0  0  0  0  0
   -2.5982    0.4674    0.0505 C   0  0  2  0  0  0  0  0  0  0  0  0
   -1.8555    1.8141    0.1197 C   0  0  0  0  0  0  0  0  0  0  0  0
   -0.6502    1.9841    0.0796 O   0  0  0  0  0  0  0  0  0  0  0  0
   -2.7858    2.7863    0.2586 N   0  0  0  0  0  0  0  0  0  0  0  0
   -4.1435    2.3214    0.1683 C   0  0  0  0  0  0  0  0  0  0  0  0
   -3.9798    0.9229   -0.1850 N   0  0  0  0  0  0  0  0  0  0  0  0
   -5.1192    0.1185   -0.1987 C   0  0  0  0  0  0  0  0  0  0  0  0
   -5.0534   -1.2740   -0.3716 C   0  0  0  0  0  0  0  0  0  0  0  0
   -6.2082   -2.0433   -0.4137 C   0  0  0  0  0  0  0  0  0  0  0  0
   -7.4660   -1.4620   -0.2909 C   0  0  0  0  0  0  0  0  0  0  0  0
   -7.5433   -0.0851   -0.1254 C   0  0  0  0  0  0  0  0  0  0  0  0
   -6.3951    0.6978   -0.0773 C   0  0  0  0  0  0  0  0  0  0  0  0
   -1.9916   -0.3936   -1.0903 C   0  0  0  0  0  0  0  0  0  0  0  0
   -1.4766   -1.7595   -0.6056 C   0  0  0  0  0  0  0  0  0  0  0  0
   -0.6242   -1.7223    0.5721 N   0  0  0  0  0  0  0  0  0  0  0  0
    0.8062   -1.7911    0.3356 C   0  0  0  0  0  0  0  0  0  0  0  0
    1.4035   -0.6666   -0.5366 C   0  0  0  0  0  0  0  0  0  0  0  0
    2.9026   -0.6639   -0.4779 C   0  0  0  0  0  0  0  0  0  0  0  0
    3.7102    0.3673   -0.1931 C   0  0  0  0  0  0  0  0  0  0  0  0
    5.1868    0.1583   -0.1290 C   0  0  0  0  0  0  0  0  0  0  0  0
    6.0781    1.1390   -0.5810 C   0  0  0  0  0  0  0  0  0  0  0  0
    7.4543    0.9459   -0.5388 C   0  0  0  0  0  0  0  0  0  0  0  0
    7.9441   -0.2432   -0.0251 C   0  0  0  0  0  0  0  0  0  0  0  0
    7.0999   -1.2336    0.4498 C   0  0  0  0  0  0  0  0  0  0  0  0
    5.7277   -1.0209    0.3985 C   0  0  0  0  0  0  0  0  0  0  0  0
    9.2760   -0.4368    0.0252 F   0  0  0  0  0  0  0  0  0  0  0  0
    3.2254    1.7766    0.0524 C   0  0  0  0  0  0  0  0  0  0  0  0
   -0.9992   -0.7592    1.6048 C   0  0  0  0  0  0  0  0  0  0  0  0
   -3.1398   -1.0651    1.4831 H   0  0  0  0  0  0  0  0  0  0  0  0
   -2.6687    0.4595    2.2242 H   0  0  0  0  0  0  0  0  0  0  0  0
   -2.5256    3.7594    0.2949 H   0  0  0  0  0  0  0  0  0  0  0  0
   -4.7001    2.8631   -0.6095 H   0  0  0  0  0  0  0  0  0  0  0  0
   -4.6769    2.4512    1.1257 H   0  0  0  0  0  0  0  0  0  0  0  0
   -4.0963   -1.7662   -0.4798 H   0  0  0  0  0  0  0  0  0  0  0  0
   -6.1146   -3.1183   -0.5473 H   0  0  0  0  0  0  0  0  0  0  0  0
   -8.3656   -2.0696   -0.3248 H   0  0  0  0  0  0  0  0  0  0  0  0
   -8.5120    0.3993   -0.0276 H   0  0  0  0  0  0  0  0  0  0  0  0
   -6.5095    1.7690    0.0521 H   0  0  0  0  0  0  0  0  0  0  0  0
   -2.7380   -0.5293   -1.8805 H   0  0  0  0  0  0  0  0  0  0  0  0
   -1.1546    0.1606   -1.5270 H   0  0  0  0  0  0  0  0  0  0  0  0
   -0.9162   -2.2353   -1.4184 H   0  0  0  0  0  0  0  0  0  0  0  0
   -2.3250   -2.4306   -0.4067 H   0  0  0  0  0  0  0  0  0  0  0  0
    1.0435   -2.7658   -0.1143 H   0  0  0  0  0  0  0  0  0  0  0  0
    1.2976   -1.7811    1.3173 H   0  0  0  0  0  0  0  0  0  0  0  0
    0.9826    0.2942   -0.2292 H   0  0  0  0  0  0  0  0  0  0  0  0
    1.0835   -0.8238   -1.5782 H   0  0  0  0  0  0  0  0  0  0  0  0
    3.3725   -1.6264   -0.6924 H   0  0  0  0  0  0  0  0  0  0  0  0
    5.6940    2.0706   -0.9880 H   0  0  0  0  0  0  0  0  0  0  0  0
    8.1471    1.7006   -0.8976 H   0  0  0  0  0  0  0  0  0  0  0  0
    7.5206   -2.1443    0.8646 H   0  0  0  0  0  0  0  0  0  0  0  0
    5.0580   -1.7788    0.7965 H   0  0  0  0  0  0  0  0  0  0  0  0
    2.1433    1.8342    0.1893 H   0  0  0  0  0  0  0  0  0  0  0  0
    3.4761    2.4297   -0.7933 H   0  0  0  0  0  0  0  0  0  0  0  0
    3.7095    2.2024    0.9388 H   0  0  0  0  0  0  0  0  0  0  0  0
   -0.3155    0.1029    1.6118 H   0  0  0  0  0  0  0  0  0  0  0  0
   -0.9214   -1.2355    2.5930 H   0  0  0  0  0  0  0  0  0  0  0  0
  1 30  1  0  0  0  0
  1 29  1  0  0  0  0
  1 31  1  0  0  0  0
  2  3  1  1  0  0  0
  2  1  1  0  0  0  0
  3  5  1  0  0  0  0
  4  3  2  0  0  0  0
  5 32  1  0  0  0  0
  6  5  1  0  0  0  0
  6 34  1  0  0  0  0
  7  2  1  0  0  0  0
  7  6  1  0  0  0  0
  8  7  1  0  0  0  0
  8 13  2  0  0  0  0
  9  8  1  0  0  0  0
 10  9  2  0  0  0  0
 10 11  1  0  0  0  0
 11 12  2  0  0  0  0
 12 13  1  0  0  0  0
 12 38  1  0  0  0  0
 13 39  1  0  0  0  0
 14 15  1  0  0  0  0
 14  2  1  0  0  0  0
 15 43  1  0  0  0  0
 15 16  1  0  0  0  0
 16 29  1  0  0  0  0
 17 16  1  0  0  0  0
 17 45  1  0  0  0  0
 18 19  1  0  0  0  0
 18 46  1  0  0  0  0
 18 17  1  0  0  0  0
 19 20  2  0  0  0  0
 20 21  1  0  0  0  0
 20 28  1  0  0  0  0
 21 26  2  0  0  0  0
 22 23  2  0  0  0  0
 22 21  1  0  0  0  0
 23 24  1  0  0  0  0
 24 27  1  0  0  0  0
 24 25  2  0  0  0  0
 25 51  1  0  0  0  0
 26 25  1  0  0  0  0
 26 52  1  0  0  0  0
 28 53  1  0  0  0  0
 28 55  1  0  0  0  0
 29 56  1  0  0  0  0
 29 57  1  0  0  0  0
 33  6  1  0  0  0  0
 35  9  1  0  0  0  0
 36 10  1  0  0  0  0
 37 11  1  0  0  0  0
 40 14  1  0  0  0  0
 41 14  1  0  0  0  0
 42 15  1  0  0  0  0
 44 17  1  0  0  0  0
 47 18  1  0  0  0  0
 48 19  1  0  0  0  0
 49 22  1  0  0  0  0
 50 23  1  0  0  0  0
 54 28  1  0  0  0  0
M  END
