omegacsd_GALSEM_04.log
 OpenBabel09261812563D

 39 40  0  0  0  0  0  0  0  0999 V2000
   -2.5507    0.2814    1.4362 S   0  0  0  0  0  0  0  0  0  0  0  0
   -1.4928    0.0529    2.4201 O   0  0  0  0  0  0  0  0  0  0  0  0
   -3.8415    0.7801    1.8478 O   0  0  0  0  0  0  0  0  0  0  0  0
   -2.7192   -1.2545    0.7525 N   0  0  0  0  0  0  0  0  0  0  0  0
   -3.6635   -1.5681   -0.2248 C   0  0  0  0  0  0  0  0  0  0  0  0
   -4.2815   -0.7077   -0.8086 O   0  0  0  0  0  0  0  0  0  0  0  0
   -3.8139   -3.0562   -0.4790 C   0  0  0  0  0  0  0  0  0  0  0  0
   -4.7123   -3.3406   -1.6747 C   0  0  0  0  0  0  0  0  0  0  0  0
   -1.9363    1.2784    0.1264 C   0  0  0  0  0  0  0  0  0  0  0  0
   -0.5655    1.3249   -0.2247 C   0  0  0  0  0  0  0  0  0  0  0  0
    0.3945    0.6314    0.4573 N   0  0  0  0  0  0  0  0  0  0  0  0
    1.7959    0.8011    0.2936 C   0  0  0  0  0  0  0  0  0  0  0  0
    2.5900   -0.3317    0.1367 C   0  0  0  0  0  0  0  0  0  0  0  0
    3.9709   -0.2009    0.0379 C   0  0  0  0  0  0  0  0  0  0  0  0
    4.5688    1.0545    0.0779 C   0  0  0  0  0  0  0  0  0  0  0  0
    3.7729    2.1847    0.2303 C   0  0  0  0  0  0  0  0  0  0  0  0
    2.3934    2.0618    0.3496 C   0  0  0  0  0  0  0  0  0  0  0  0
    4.8191   -1.4235   -0.1847 C   0  0  0  0  0  0  0  0  0  0  0  0
    4.2443   -2.5288    0.3227 F   0  0  0  0  0  0  0  0  0  0  0  0
    5.0209   -1.6501   -1.4961 F   0  0  0  0  0  0  0  0  0  0  0  0
    6.0309   -1.2961    0.3834 F   0  0  0  0  0  0  0  0  0  0  0  0
   -0.2661    2.1127   -1.3528 C   0  0  0  0  0  0  0  0  0  0  0  0
   -1.2786    2.7927   -1.9997 C   0  0  0  0  0  0  0  0  0  0  0  0
   -2.5712    2.7775   -1.6460 N   0  0  0  0  0  0  0  0  0  0  0  0
   -2.8731    2.0156   -0.6042 C   0  0  0  0  0  0  0  0  0  0  0  0
   -2.2742   -1.9827    1.2986 H   0  0  0  0  0  0  0  0  0  0  0  0
   -2.8167   -3.4933   -0.6196 H   0  0  0  0  0  0  0  0  0  0  0  0
   -4.2235   -3.5098    0.4338 H   0  0  0  0  0  0  0  0  0  0  0  0
   -5.7010   -2.8993   -1.5277 H   0  0  0  0  0  0  0  0  0  0  0  0
   -4.8267   -4.4189   -1.8178 H   0  0  0  0  0  0  0  0  0  0  0  0
   -4.2924   -2.9107   -2.5881 H   0  0  0  0  0  0  0  0  0  0  0  0
    0.0916    0.1794    1.3138 H   0  0  0  0  0  0  0  0  0  0  0  0
    2.1241   -1.3115    0.0949 H   0  0  0  0  0  0  0  0  0  0  0  0
    5.6479    1.1447    0.0001 H   0  0  0  0  0  0  0  0  0  0  0  0
    4.2320    3.1681    0.2771 H   0  0  0  0  0  0  0  0  0  0  0  0
    1.7723    2.9414    0.4969 H   0  0  0  0  0  0  0  0  0  0  0  0
    0.7526    2.1820   -1.7175 H   0  0  0  0  0  0  0  0  0  0  0  0
   -1.0357    3.4002   -2.8704 H   0  0  0  0  0  0  0  0  0  0  0  0
   -3.9182    1.9663   -0.3111 H   0  0  0  0  0  0  0  0  0  0  0  0
  1  3  2  0  0  0  0
  1  2  2  0  0  0  0
  4 26  1  0  0  0  0
  4  1  1  0  0  0  0
  5  4  1  0  0  0  0
  6  5  2  0  0  0  0
  7  5  1  0  0  0  0
  7 28  1  0  0  0  0
  8 29  1  0  0  0  0
  8  7  1  0  0  0  0
  9  1  1  0  0  0  0
 10  9  1  0  0  0  0
 10 11  1  0  0  0  0
 11 32  1  0  0  0  0
 12 17  1  0  0  0  0
 12 11  1  0  0  0  0
 13 12  2  0  0  0  0
 14 15  2  0  0  0  0
 14 13  1  0  0  0  0
 15 16  1  0  0  0  0
 16 35  1  0  0  0  0
 16 17  2  0  0  0  0
 17 36  1  0  0  0  0
 18 14  1  0  0  0  0
 18 19  1  0  0  0  0
 18 21  1  0  0  0  0
 20 18  1  0  0  0  0
 22 10  2  0  0  0  0
 23 24  2  0  0  0  0
 23 22  1  0  0  0  0
 24 25  1  0  0  0  0
 25 39  1  0  0  0  0
 25  9  2  0  0  0  0
 27  7  1  0  0  0  0
 30  8  1  0  0  0  0
 31  8  1  0  0  0  0
 33 13  1  0  0  0  0
 34 15  1  0  0  0  0
 37 22  1  0  0  0  0
 38 23  1  0  0  0  0
M  END
