omegapdb_1qxw_24.log
 OpenBabel09261812563D

 36 36  0  0  1  0  0  0  0  0999 V2000
   -4.1012    0.7201   -0.6694 C   0  0  0  0  0  0  0  0  0  0  0  0
   -4.4537   -0.6517   -0.1660 C   0  0  0  0  0  0  0  0  0  0  0  0
   -3.1020   -0.0726    0.1252 C   0  0  0  0  0  0  0  0  0  0  0  0
   -1.9894   -0.6240   -0.5982 N   0  0  0  0  0  0  0  0  0  0  0  0
   -0.9182    0.3053   -0.9054 C   0  0  0  0  0  0  0  0  0  0  0  0
    0.0626    0.6603    0.2247 C   0  0  0  0  0  0  0  0  0  0  0  0
    0.8822   -0.5227    0.7874 C   0  0  1  0  0  0  0  0  0  0  0  0
   -0.0239   -1.4193    1.5102 N   0  0  0  0  0  0  0  0  0  0  0  0
    1.6160   -1.3650   -0.2652 C   0  0  0  0  0  0  0  0  0  0  0  0
    2.6769   -0.7168   -1.1667 C   0  0  0  0  0  0  0  0  0  0  0  0
    4.0201   -0.3705   -0.5057 C   0  0  0  0  0  0  0  0  0  0  0  0
    4.0716    0.9418    0.2787 C   0  0  0  0  0  0  0  0  0  0  0  0
   -0.5976    1.2009    1.3557 O   0  0  0  0  0  0  0  0  0  0  0  0
    0.9050    1.6442   -0.3324 O   0  0  0  0  0  0  0  0  0  0  0  0
   -4.5734    1.5811   -0.2041 H   0  0  0  0  0  0  0  0  0  0  0  0
   -3.9061    0.8225   -1.7332 H   0  0  0  0  0  0  0  0  0  0  0  0
   -4.4849   -1.4535   -0.8971 H   0  0  0  0  0  0  0  0  0  0  0  0
   -5.1669   -0.7378    0.6490 H   0  0  0  0  0  0  0  0  0  0  0  0
   -2.9336    0.2552    1.1541 H   0  0  0  0  0  0  0  0  0  0  0  0
   -1.6069   -1.4110   -0.0778 H   0  0  0  0  0  0  0  0  0  0  0  0
   -0.3274   -0.0840   -1.7437 H   0  0  0  0  0  0  0  0  0  0  0  0
   -1.3586    1.2479   -1.2569 H   0  0  0  0  0  0  0  0  0  0  0  0
    1.6222   -0.0631    1.4681 H   0  0  0  0  0  0  0  0  0  0  0  0
    0.5143   -2.1450    1.9753 H   0  0  0  0  0  0  0  0  0  0  0  0
   -0.5068   -0.8886    2.2296 H   0  0  0  0  0  0  0  0  0  0  0  0
    2.0940   -2.1973    0.2742 H   0  0  0  0  0  0  0  0  0  0  0  0
    0.8499   -1.8334   -0.8963 H   0  0  0  0  0  0  0  0  0  0  0  0
    2.8833   -1.4436   -1.9629 H   0  0  0  0  0  0  0  0  0  0  0  0
    2.2672    0.1728   -1.6570 H   0  0  0  0  0  0  0  0  0  0  0  0
    4.3291   -1.2001    0.1462 H   0  0  0  0  0  0  0  0  0  0  0  0
    4.7792   -0.3139   -1.2962 H   0  0  0  0  0  0  0  0  0  0  0  0
    3.4489    0.9146    1.1801 H   0  0  0  0  0  0  0  0  0  0  0  0
    3.7389    1.7799   -0.3454 H   0  0  0  0  0  0  0  0  0  0  0  0
    5.0948    1.1580    0.6051 H   0  0  0  0  0  0  0  0  0  0  0  0
   -1.1765    1.9053    1.0315 H   0  0  0  0  0  0  0  0  0  0  0  0
    1.5274    1.9076    0.3605 H   0  0  0  0  0  0  0  0  0  0  0  0
  1 15  1  0  0  0  0
  1  2  1  0  0  0  0
  1  3  1  0  0  0  0
  2  3  1  0  0  0  0
  2 18  1  0  0  0  0
  3 19  1  0  0  0  0
  4 20  1  0  0  0  0
  4  3  1  0  0  0  0
  5  4  1  0  0  0  0
  5  6  1  0  0  0  0
  6  7  1  0  0  0  0
  6 13  1  0  0  0  0
  7 23  1  1  0  0  0
  7  8  1  0  0  0  0
  8 24  1  0  0  0  0
  8 25  1  0  0  0  0
  9 26  1  0  0  0  0
  9  7  1  0  0  0  0
 10 11  1  0  0  0  0
 10  9  1  0  0  0  0
 11 30  1  0  0  0  0
 11 12  1  0  0  0  0
 12 34  1  0  0  0  0
 12 32  1  0  0  0  0
 14  6  1  0  0  0  0
 14 36  1  0  0  0  0
 16  1  1  0  0  0  0
 17  2  1  0  0  0  0
 21  5  1  0  0  0  0
 22  5  1  0  0  0  0
 27  9  1  0  0  0  0
 28 10  1  0  0  0  0
 29 10  1  0  0  0  0
 31 11  1  0  0  0  0
 33 12  1  0  0  0  0
 35 13  1  0  0  0  0
M  END
