omegapdb_1gs5_04.log
 OpenBabel09261812563D

 24 23  0  0  1  0  0  0  0  0999 V2000
   -0.2950    0.4885    0.9047 C   0  0  2  0  0  0  0  0  0  0  0  0
    0.0223    1.5674   -0.1486 C   0  0  0  0  0  0  0  0  0  0  0  0
    1.1458    1.8963   -0.4428 O   0  0  0  0  0  0  0  0  0  0  0  0
   -1.0494    2.1266   -0.7108 O   0  0  0  0  0  0  0  0  0  0  0  0
    0.9516    0.0638    1.6903 C   0  0  0  0  0  0  0  0  0  0  0  0
    1.8112   -1.0591    1.0798 C   0  0  0  0  0  0  0  0  0  0  0  0
    2.1167   -0.8438   -0.3806 C   0  0  0  0  0  0  0  0  0  0  0  0
    1.3526   -1.1446   -1.2777 O   0  0  0  0  0  0  0  0  0  0  0  0
    3.3077   -0.2882   -0.5991 O   0  0  0  0  0  0  0  0  0  0  0  0
   -0.9984   -0.6365    0.2977 N   0  0  0  0  0  0  0  0  0  0  0  0
   -2.3250   -0.5517    0.0231 C   0  0  0  0  0  0  0  0  0  0  0  0
   -2.9876    0.4492    0.3059 O   0  0  0  0  0  0  0  0  0  0  0  0
   -2.9549   -1.7605   -0.6228 C   0  0  0  0  0  0  0  0  0  0  0  0
   -1.0058    0.9408    1.6058 H   0  0  0  0  0  0  0  0  0  0  0  0
   -1.8713    1.7431   -0.3273 H   0  0  0  0  0  0  0  0  0  0  0  0
    0.6396   -0.2752    2.6835 H   0  0  0  0  0  0  0  0  0  0  0  0
    1.5691    0.9561    1.8231 H   0  0  0  0  0  0  0  0  0  0  0  0
    1.2842   -2.0151    1.1590 H   0  0  0  0  0  0  0  0  0  0  0  0
    2.7437   -1.1367    1.6445 H   0  0  0  0  0  0  0  0  0  0  0  0
    3.3529   -0.0868   -1.5491 H   0  0  0  0  0  0  0  0  0  0  0  0
   -0.4273   -1.2588   -0.2688 H   0  0  0  0  0  0  0  0  0  0  0  0
   -3.4771   -1.4451   -1.5294 H   0  0  0  0  0  0  0  0  0  0  0  0
   -2.2307   -2.5413   -0.8676 H   0  0  0  0  0  0  0  0  0  0  0  0
   -3.7024   -2.1681    0.0639 H   0  0  0  0  0  0  0  0  0  0  0  0
  1 14  1  1  0  0  0
  1  5  1  0  0  0  0
  2  1  1  0  0  0  0
  3  2  2  0  0  0  0
  4 15  1  0  0  0  0
  4  2  1  0  0  0  0
  5 17  1  0  0  0  0
  5 16  1  0  0  0  0
  6 18  1  0  0  0  0
  6 19  1  0  0  0  0
  6  5  1  0  0  0  0
  7  6  1  0  0  0  0
  8  7  2  0  0  0  0
  9  7  1  0  0  0  0
 10  1  1  0  0  0  0
 11 10  1  0  0  0  0
 11 12  2  0  0  0  0
 13 11  1  0  0  0  0
 13 24  1  0  0  0  0
 20  9  1  0  0  0  0
 21 10  1  0  0  0  0
 22 13  1  0  0  0  0
 23 13  1  0  0  0  0
M  END
