omegacsd_SEYMIS_08.log
 OpenBabel09261812563D

 45 47  0  0  0  0  0  0  0  0999 V2000
    4.1023   -2.4262    0.9245 O   0  0  0  0  0  0  0  0  0  0  0  0
    4.6226   -1.2194    0.5150 N   0  0  0  0  0  0  0  0  0  0  0  0
    3.6040   -0.4192    0.3187 C   0  0  0  0  0  0  0  0  0  0  0  0
    2.3674   -1.1053    0.5861 C   0  0  0  0  0  0  0  0  0  0  0  0
    0.9595   -0.6128    0.5159 C   0  0  0  0  0  0  0  0  0  0  0  0
    0.5753    0.4073    1.0652 O   0  0  0  0  0  0  0  0  0  0  0  0
    0.1329   -1.4374   -0.1965 N   0  0  0  0  0  0  0  0  0  0  0  0
   -1.2430   -1.2313   -0.4122 C   0  0  0  0  0  0  0  0  0  0  0  0
   -2.0296   -2.0591   -1.1926 C   0  0  0  0  0  0  0  0  0  0  0  0
   -3.3040   -1.5841   -1.1868 N   0  0  0  0  0  0  0  0  0  0  0  0
   -4.4105   -2.2016   -1.9011 C   0  0  0  0  0  0  0  0  0  0  0  0
   -3.3428   -0.4550   -0.4045 C   0  0  0  0  0  0  0  0  0  0  0  0
   -2.0742   -0.2102    0.0912 C   0  0  0  0  0  0  0  0  0  0  0  0
   -4.5801    0.3007   -0.1924 C   0  0  0  0  0  0  0  0  0  0  0  0
   -5.6641    0.0164   -0.6640 O   0  0  0  0  0  0  0  0  0  0  0  0
   -4.3726    1.3632    0.5991 O   0  0  0  0  0  0  0  0  0  0  0  0
   -5.5305    2.1676    0.8693 C   0  0  0  0  0  0  0  0  0  0  0  0
   -5.0836    3.3117    1.7531 C   0  0  0  0  0  0  0  0  0  0  0  0
    2.7671   -2.3529    0.9622 C   0  0  0  0  0  0  0  0  0  0  0  0
    2.0501   -3.5781    1.4142 C   0  0  0  0  0  0  0  0  0  0  0  0
    3.8615    0.9508   -0.1796 C   0  0  0  0  0  0  0  0  0  0  0  0
    4.9663    1.1685   -1.0104 C   0  0  0  0  0  0  0  0  0  0  0  0
    5.2486    2.4444   -1.4801 C   0  0  0  0  0  0  0  0  0  0  0  0
    4.4310    3.5151   -1.1262 C   0  0  0  0  0  0  0  0  0  0  0  0
    3.3346    3.3028   -0.2973 C   0  0  0  0  0  0  0  0  0  0  0  0
    3.0468    2.0273    0.1790 C   0  0  0  0  0  0  0  0  0  0  0  0
    0.5690   -2.1792   -0.7231 H   0  0  0  0  0  0  0  0  0  0  0  0
   -1.7722   -2.9501   -1.7512 H   0  0  0  0  0  0  0  0  0  0  0  0
   -4.8437   -1.5013   -2.6169 H   0  0  0  0  0  0  0  0  0  0  0  0
   -4.0229   -3.0762   -2.4280 H   0  0  0  0  0  0  0  0  0  0  0  0
   -5.1938   -2.5074   -1.2058 H   0  0  0  0  0  0  0  0  0  0  0  0
   -1.7830    0.6061    0.7323 H   0  0  0  0  0  0  0  0  0  0  0  0
   -5.9482    2.5194   -0.0794 H   0  0  0  0  0  0  0  0  0  0  0  0
   -6.2892    1.5449    1.3544 H   0  0  0  0  0  0  0  0  0  0  0  0
   -4.6595    2.9352    2.6885 H   0  0  0  0  0  0  0  0  0  0  0  0
   -4.3244    3.9165    1.2488 H   0  0  0  0  0  0  0  0  0  0  0  0
   -5.9370    3.9541    1.9924 H   0  0  0  0  0  0  0  0  0  0  0  0
    2.4622   -3.9219    2.3674 H   0  0  0  0  0  0  0  0  0  0  0  0
    0.9857   -3.3715    1.5439 H   0  0  0  0  0  0  0  0  0  0  0  0
    2.1695   -4.3894    0.6881 H   0  0  0  0  0  0  0  0  0  0  0  0
    5.5977    0.3273   -1.2819 H   0  0  0  0  0  0  0  0  0  0  0  0
    6.1073    2.6029   -2.1275 H   0  0  0  0  0  0  0  0  0  0  0  0
    4.6494    4.5134   -1.4974 H   0  0  0  0  0  0  0  0  0  0  0  0
    2.6961    4.1354   -0.0134 H   0  0  0  0  0  0  0  0  0  0  0  0
    2.1928    1.8620    0.8283 H   0  0  0  0  0  0  0  0  0  0  0  0
  1 19  1  0  0  0  0
  2  1  1  0  0  0  0
  3  2  2  0  0  0  0
  3  4  1  0  0  0  0
  4 19  2  0  0  0  0
  5  4  1  0  0  0  0
  5  6  2  0  0  0  0
  7  5  1  0  0  0  0
  8  7  1  0  0  0  0
  8 13  1  0  0  0  0
  9 10  1  0  0  0  0
  9  8  2  0  0  0  0
 10 12  1  0  0  0  0
 11 31  1  0  0  0  0
 11 10  1  0  0  0  0
 12 14  1  0  0  0  0
 12 13  2  0  0  0  0
 13 32  1  0  0  0  0
 14 16  1  0  0  0  0
 15 14  2  0  0  0  0
 16 17  1  0  0  0  0
 17 34  1  0  0  0  0
 17 18  1  0  0  0  0
 18 37  1  0  0  0  0
 18 35  1  0  0  0  0
 19 20  1  0  0  0  0
 20 39  1  0  0  0  0
 20 38  1  0  0  0  0
 21 26  1  0  0  0  0
 21  3  1  0  0  0  0
 22 21  2  0  0  0  0
 23 24  2  0  0  0  0
 23 22  1  0  0  0  0
 24 25  1  0  0  0  0
 25 44  1  0  0  0  0
 25 26  2  0  0  0  0
 26 45  1  0  0  0  0
 27  7  1  0  0  0  0
 28  9  1  0  0  0  0
 29 11  1  0  0  0  0
 30 11  1  0  0  0  0
 33 17  1  0  0  0  0
 36 18  1  0  0  0  0
 40 20  1  0  0  0  0
 41 22  1  0  0  0  0
 42 23  1  0  0  0  0
 43 24  1  0  0  0  0
M  END
