omegapdb_1gs5_17.log
 OpenBabel09261812563D

 24 23  0  0  1  0  0  0  0  0999 V2000
    0.2877   -0.0895    0.2096 C   0  0  2  0  0  0  0  0  0  0  0  0
    0.4751    1.4119    0.0124 C   0  0  0  0  0  0  0  0  0  0  0  0
    1.3073    2.0849    0.5683 O   0  0  0  0  0  0  0  0  0  0  0  0
   -0.4425    1.9316   -0.8276 O   0  0  0  0  0  0  0  0  0  0  0  0
   -0.7483   -0.3745    1.3060 C   0  0  0  0  0  0  0  0  0  0  0  0
   -2.1613    0.0981    0.9795 C   0  0  0  0  0  0  0  0  0  0  0  0
   -2.7858   -0.6913   -0.1615 C   0  0  0  0  0  0  0  0  0  0  0  0
   -2.3237   -1.7032   -0.6159 O   0  0  0  0  0  0  0  0  0  0  0  0
   -3.9519   -0.2011   -0.6341 O   0  0  0  0  0  0  0  0  0  0  0  0
    1.5466   -0.6987    0.5687 N   0  0  0  0  0  0  0  0  0  0  0  0
    2.5726   -0.6548   -0.3451 C   0  0  0  0  0  0  0  0  0  0  0  0
    2.3824   -0.3052   -1.4961 O   0  0  0  0  0  0  0  0  0  0  0  0
    3.9288   -1.0638    0.1850 C   0  0  0  0  0  0  0  0  0  0  0  0
   -0.0479   -0.5228   -0.7355 H   0  0  0  0  0  0  0  0  0  0  0  0
   -0.2381    2.8795   -0.8969 H   0  0  0  0  0  0  0  0  0  0  0  0
   -0.4191    0.0959    2.2419 H   0  0  0  0  0  0  0  0  0  0  0  0
   -0.7659   -1.4579    1.4590 H   0  0  0  0  0  0  0  0  0  0  0  0
   -2.8043   -0.0348    1.8596 H   0  0  0  0  0  0  0  0  0  0  0  0
   -2.1784    1.1664    0.7338 H   0  0  0  0  0  0  0  0  0  0  0  0
   -4.1714    0.6280   -0.1873 H   0  0  0  0  0  0  0  0  0  0  0  0
    1.7977   -0.6886    1.5475 H   0  0  0  0  0  0  0  0  0  0  0  0
    4.4281   -0.1827    0.6032 H   0  0  0  0  0  0  0  0  0  0  0  0
    4.5316   -1.4380   -0.6436 H   0  0  0  0  0  0  0  0  0  0  0  0
    3.8573   -1.8274    0.9653 H   0  0  0  0  0  0  0  0  0  0  0  0
  1 14  1  6  0  0  0
  1 10  1  0  0  0  0
  1  5  1  0  0  0  0
  2  1  1  0  0  0  0
  2  3  2  0  0  0  0
  4  2  1  0  0  0  0
  5 17  1  0  0  0  0
  5 16  1  0  0  0  0
  6  5  1  0  0  0  0
  6 18  1  0  0  0  0
  7  6  1  0  0  0  0
  8  7  2  0  0  0  0
  9 20  1  0  0  0  0
  9  7  1  0  0  0  0
 10 21  1  0  0  0  0
 11 13  1  0  0  0  0
 11 10  1  0  0  0  0
 12 11  2  0  0  0  0
 13 22  1  0  0  0  0
 13 24  1  0  0  0  0
 15  4  1  0  0  0  0
 19  6  1  0  0  0  0
 23 13  1  0  0  0  0
M  END
