omegacsd_FIBREN_16.log
 OpenBabel09261812563D

 39 41  0  0  1  0  0  0  0  0999 V2000
   -2.2579   -1.5252    1.6491 N   0  0  0  0  0  0  0  0  0  0  0  0
   -0.9574   -1.2852    1.8268 C   0  0  0  0  0  0  0  0  0  0  0  0
   -0.1528   -0.5363    1.0491 N   0  0  0  0  0  0  0  0  0  0  0  0
   -0.6515    0.0360   -0.0539 C   0  0  0  0  0  0  0  0  0  0  0  0
   -2.0206   -0.1413   -0.3305 C   0  0  2  0  0  0  0  0  0  0  0  0
   -2.7164   -0.9192    0.5636 C   0  0  0  0  0  0  0  0  0  0  0  0
   -4.0048   -0.9751    0.1286 O   0  0  0  0  0  0  0  0  0  0  0  0
   -4.0076   -0.2160   -1.0156 C   0  0  0  0  0  0  0  0  0  0  0  0
   -2.8708    0.2999   -1.3398 N   0  0  0  0  0  0  0  0  0  0  0  0
   -5.3088   -0.0886   -1.7194 C   0  0  0  0  0  0  0  0  0  0  0  0
    0.1474    0.7557   -0.8743 N   0  0  0  0  0  0  0  0  0  0  0  0
    1.5653    1.0184   -0.6480 C   0  0  1  0  0  0  0  0  0  0  0  0
    1.7831    1.8855    0.5935 C   0  0  0  0  0  0  0  0  0  0  0  0
    1.1705    3.2626    0.4029 C   0  0  0  0  0  0  0  0  0  0  0  0
    0.7343    3.6762   -0.6395 O   0  0  0  0  0  0  0  0  0  0  0  0
    1.1565    4.0461    1.5023 O   0  0  0  0  0  0  0  0  0  0  0  0
    2.4029   -0.2545   -0.6913 C   0  0  0  0  0  0  0  0  0  0  0  0
    2.9442   -0.8535    0.4448 C   0  0  0  0  0  0  0  0  0  0  0  0
    3.7149   -2.0079    0.3384 C   0  0  0  0  0  0  0  0  0  0  0  0
    3.9468   -2.5837   -0.9063 C   0  0  0  0  0  0  0  0  0  0  0  0
    3.4044   -1.9976   -2.0464 C   0  0  0  0  0  0  0  0  0  0  0  0
    2.6423   -0.8404   -1.9355 C   0  0  0  0  0  0  0  0  0  0  0  0
   -0.3019   -1.9045    3.0291 C   0  0  0  0  0  0  0  0  0  0  0  0
   -6.0559    0.3713   -1.0652 H   0  0  0  0  0  0  0  0  0  0  0  0
   -5.6835   -1.0726   -2.0177 H   0  0  0  0  0  0  0  0  0  0  0  0
   -5.1723    0.5318   -2.6059 H   0  0  0  0  0  0  0  0  0  0  0  0
   -0.3218    1.3290   -1.5604 H   0  0  0  0  0  0  0  0  0  0  0  0
    1.8618    1.6292   -1.5064 H   0  0  0  0  0  0  0  0  0  0  0  0
    2.8574    2.0107    0.7847 H   0  0  0  0  0  0  0  0  0  0  0  0
    1.3439    1.3982    1.4718 H   0  0  0  0  0  0  0  0  0  0  0  0
    1.5233    3.5643    2.2567 H   0  0  0  0  0  0  0  0  0  0  0  0
    2.7475   -0.4331    1.4267 H   0  0  0  0  0  0  0  0  0  0  0  0
    4.1302   -2.4621    1.2347 H   0  0  0  0  0  0  0  0  0  0  0  0
    4.5463   -3.4868   -0.9879 H   0  0  0  0  0  0  0  0  0  0  0  0
    3.5793   -2.4391   -3.0242 H   0  0  0  0  0  0  0  0  0  0  0  0
    2.2203   -0.3834   -2.8291 H   0  0  0  0  0  0  0  0  0  0  0  0
    0.6007   -2.4439    2.7255 H   0  0  0  0  0  0  0  0  0  0  0  0
   -0.9930   -2.5851    3.5287 H   0  0  0  0  0  0  0  0  0  0  0  0
    0.0042   -1.1243    3.7349 H   0  0  0  0  0  0  0  0  0  0  0  0
  1  2  2  0  0  0  0
  2 23  1  0  0  0  0
  3  2  1  0  0  0  0
  4  3  2  0  0  0  0
  5  9  1  6  0  0  0
  5  4  1  0  0  0  0
  5  6  1  0  0  0  0
  6  1  2  0  0  0  0
  7  6  1  0  0  0  0
  8  7  1  0  0  0  0
  9  8  2  0  0  0  0
 10 24  1  0  0  0  0
 10  8  1  0  0  0  0
 11 12  1  0  0  0  0
 11  4  1  0  0  0  0
 12 28  1  6  0  0  0
 12 13  1  0  0  0  0
 13 29  1  0  0  0  0
 13 30  1  0  0  0  0
 14 13  1  0  0  0  0
 14 16  1  0  0  0  0
 15 14  2  0  0  0  0
 16 31  1  0  0  0  0
 17 12  1  0  0  0  0
 17 18  2  0  0  0  0
 18 32  1  0  0  0  0
 19 18  1  0  0  0  0
 19 33  1  0  0  0  0
 20 19  2  0  0  0  0
 21 22  2  0  0  0  0
 21 20  1  0  0  0  0
 22 17  1  0  0  0  0
 23 38  1  0  0  0  0
 23 39  1  0  0  0  0
 25 10  1  0  0  0  0
 26 10  1  0  0  0  0
 27 11  1  0  0  0  0
 34 20  1  0  0  0  0
 35 21  1  0  0  0  0
 36 22  1  0  0  0  0
 37 23  1  0  0  0  0
M  RAD  1   5   2
M  END
