omegapdb_1m5f_14.log
 OpenBabel09261812563D

 25 25  0  0  1  0  0  0  0  0999 V2000
   -0.6706   -2.3985    0.0257 O   0  0  0  0  0  0  0  0  0  0  0  0
   -1.8973   -1.8351    0.1067 C   0  0  0  0  0  0  0  0  0  0  0  0
   -2.9023   -2.4771    0.2620 O   0  0  0  0  0  0  0  0  0  0  0  0
   -1.8195   -0.3542   -0.0102 C   0  0  0  0  0  0  0  0  0  0  0  0
   -2.8975    0.3359    0.2772 N   0  0  0  0  0  0  0  0  0  0  0  0
   -2.5487    1.6394    0.1034 O   0  0  0  0  0  0  0  0  0  0  0  0
   -1.2622    1.7305   -0.2889 C   0  0  0  0  0  0  0  0  0  0  0  0
   -0.7258    0.4828   -0.3903 C   0  0  0  0  0  0  0  0  0  0  0  0
    0.6734    0.1250   -0.7950 C   0  0  0  0  0  0  0  0  0  0  0  0
    1.6029   -0.0064    0.4247 C   0  0  2  0  0  0  0  0  0  0  0  0
    1.6439    1.2370    1.1799 N   0  0  0  0  0  0  0  0  0  0  0  0
    3.0191   -0.3634    0.0106 C   0  0  0  0  0  0  0  0  0  0  0  0
    4.0182    0.1390    0.4685 O   0  0  0  0  0  0  0  0  0  0  0  0
    3.0585   -1.3425   -0.9094 O   0  0  0  0  0  0  0  0  0  0  0  0
   -0.7207    3.0962   -0.5270 C   0  0  0  0  0  0  0  0  0  0  0  0
   -0.8129   -3.3569    0.1033 H   0  0  0  0  0  0  0  0  0  0  0  0
    0.6762   -0.8103   -1.3586 H   0  0  0  0  0  0  0  0  0  0  0  0
    1.0709    0.9133   -1.4440 H   0  0  0  0  0  0  0  0  0  0  0  0
    1.2494   -0.8682    1.0163 H   0  0  0  0  0  0  0  0  0  0  0  0
    2.5523    1.3278    1.6256 H   0  0  0  0  0  0  0  0  0  0  0  0
    0.9333    1.2353    1.9028 H   0  0  0  0  0  0  0  0  0  0  0  0
    3.9996   -1.5132   -1.0809 H   0  0  0  0  0  0  0  0  0  0  0  0
   -1.2403    3.8198    0.1066 H   0  0  0  0  0  0  0  0  0  0  0  0
   -0.8576    3.3985   -1.5711 H   0  0  0  0  0  0  0  0  0  0  0  0
    0.3448    3.1084   -0.2833 H   0  0  0  0  0  0  0  0  0  0  0  0
  1 16  1  0  0  0  0
  1  2  1  0  0  0  0
  2  3  2  0  0  0  0
  4  2  1  0  0  0  0
  4  5  2  0  0  0  0
  6  5  1  0  0  0  0
  7  6  1  0  0  0  0
  8  7  2  0  0  0  0
  8  4  1  0  0  0  0
  9  8  1  0  0  0  0
  9 10  1  0  0  0  0
 10 19  1  1  0  0  0
 10 11  1  0  0  0  0
 11 20  1  0  0  0  0
 11 21  1  0  0  0  0
 12 10  1  0  0  0  0
 12 13  2  0  0  0  0
 14 12  1  0  0  0  0
 15  7  1  0  0  0  0
 15 25  1  0  0  0  0
 15 23  1  0  0  0  0
 17  9  1  0  0  0  0
 18  9  1  0  0  0  0
 22 14  1  0  0  0  0
 24 15  1  0  0  0  0
M  END
