omegacsd_FIBREN_02.log
 OpenBabel09261812563D

 39 41  0  0  1  0  0  0  0  0999 V2000
    3.1471    1.5751   -0.9941 N   0  0  0  0  0  0  0  0  0  0  0  0
    1.8739    1.7687   -1.3525 C   0  0  0  0  0  0  0  0  0  0  0  0
    0.8299    0.9518   -1.1196 N   0  0  0  0  0  0  0  0  0  0  0  0
    1.0325   -0.1950   -0.4660 C   0  0  0  0  0  0  0  0  0  0  0  0
    2.3368   -0.5025   -0.0414 C   0  0  1  0  0  0  0  0  0  0  0  0
    3.2990    0.4296   -0.3493 C   0  0  0  0  0  0  0  0  0  0  0  0
    4.4796   -0.0363    0.1463 O   0  0  0  0  0  0  0  0  0  0  0  0
    4.1515   -1.2333    0.7312 C   0  0  0  0  0  0  0  0  0  0  0  0
    2.9067   -1.5642    0.6559 N   0  0  0  0  0  0  0  0  0  0  0  0
    5.2643   -1.9820    1.3690 C   0  0  0  0  0  0  0  0  0  0  0  0
   -0.0056   -1.0402   -0.2455 N   0  0  0  0  0  0  0  0  0  0  0  0
   -1.3869   -0.6528   -0.4840 C   0  0  1  0  0  0  0  0  0  0  0  0
   -2.2337   -1.9265   -0.5426 C   0  0  0  0  0  0  0  0  0  0  0  0
   -3.6027   -1.6738   -1.1263 C   0  0  0  0  0  0  0  0  0  0  0  0
   -3.8967   -0.7638   -1.8637 O   0  0  0  0  0  0  0  0  0  0  0  0
   -4.4818   -2.6247   -0.7613 O   0  0  0  0  0  0  0  0  0  0  0  0
   -1.9225    0.3290    0.5512 C   0  0  0  0  0  0  0  0  0  0  0  0
   -1.6845    0.1319    1.9120 C   0  0  0  0  0  0  0  0  0  0  0  0
   -2.2004    1.0121    2.8569 C   0  0  0  0  0  0  0  0  0  0  0  0
   -2.9641    2.1025    2.4492 C   0  0  0  0  0  0  0  0  0  0  0  0
   -3.2056    2.3057    1.0942 C   0  0  0  0  0  0  0  0  0  0  0  0
   -2.6869    1.4236    0.1506 C   0  0  0  0  0  0  0  0  0  0  0  0
    1.5572    3.0309   -2.1028 C   0  0  0  0  0  0  0  0  0  0  0  0
    5.7308   -1.3816    2.1560 H   0  0  0  0  0  0  0  0  0  0  0  0
    6.0350   -2.2273    0.6318 H   0  0  0  0  0  0  0  0  0  0  0  0
    4.8700   -2.9028    1.8006 H   0  0  0  0  0  0  0  0  0  0  0  0
    0.1873   -1.8218    0.3648 H   0  0  0  0  0  0  0  0  0  0  0  0
   -1.4227   -0.1704   -1.4641 H   0  0  0  0  0  0  0  0  0  0  0  0
   -1.7424   -2.6665   -1.1880 H   0  0  0  0  0  0  0  0  0  0  0  0
   -2.3472   -2.3829    0.4473 H   0  0  0  0  0  0  0  0  0  0  0  0
   -5.3174   -2.4045   -1.2061 H   0  0  0  0  0  0  0  0  0  0  0  0
   -1.0759   -0.7095    2.2405 H   0  0  0  0  0  0  0  0  0  0  0  0
   -2.0034    0.8481    3.9135 H   0  0  0  0  0  0  0  0  0  0  0  0
   -3.3649    2.7941    3.1860 H   0  0  0  0  0  0  0  0  0  0  0  0
   -3.7963    3.1579    0.7676 H   0  0  0  0  0  0  0  0  0  0  0  0
   -2.8785    1.5784   -0.9080 H   0  0  0  0  0  0  0  0  0  0  0  0
    1.2501    2.7893   -3.1260 H   0  0  0  0  0  0  0  0  0  0  0  0
    0.7204    3.5495   -1.6260 H   0  0  0  0  0  0  0  0  0  0  0  0
    2.4320    3.6822   -2.1347 H   0  0  0  0  0  0  0  0  0  0  0  0
  1  6  2  0  0  0  0
  2  3  1  0  0  0  0
  2  1  2  0  0  0  0
  3  4  2  0  0  0  0
  4 11  1  0  0  0  0
  5  4  1  1  0  0  0
  5  9  1  0  0  0  0
  6  5  1  0  0  0  0
  6  7  1  0  0  0  0
  7  8  1  0  0  0  0
  8 10  1  0  0  0  0
  9  8  2  0  0  0  0
 10 26  1  0  0  0  0
 10 24  1  0  0  0  0
 11 27  1  0  0  0  0
 12 28  1  6  0  0  0
 12 11  1  0  0  0  0
 12 17  1  0  0  0  0
 13 12  1  0  0  0  0
 13 30  1  0  0  0  0
 14 16  1  0  0  0  0
 14 13  1  0  0  0  0
 15 14  2  0  0  0  0
 17 18  1  0  0  0  0
 18 32  1  0  0  0  0
 18 19  2  0  0  0  0
 19 33  1  0  0  0  0
 20 19  1  0  0  0  0
 20 34  1  0  0  0  0
 21 20  2  0  0  0  0
 22 17  2  0  0  0  0
 22 21  1  0  0  0  0
 23 38  1  0  0  0  0
 23  2  1  0  0  0  0
 25 10  1  0  0  0  0
 29 13  1  0  0  0  0
 31 16  1  0  0  0  0
 35 21  1  0  0  0  0
 36 22  1  0  0  0  0
 37 23  1  0  0  0  0
 39 23  1  0  0  0  0
M  RAD  1   5   2
M  END
