omegapdb_2f7p_10.log
 OpenBabel09261812563D

 34 35  0  0  1  0  0  0  0  0999 V2000
   -0.5830   -0.5140   -0.0068 C   0  0  1  0  0  0  0  0  0  0  0  0
    0.0588   -1.3104   -1.0310 N   0  0  0  0  0  0  0  0  0  0  0  0
    1.3560   -1.8771   -0.6752 C   0  0  0  0  0  0  0  0  0  0  0  0
    2.4249   -0.9026   -0.2067 C   0  0  0  0  0  0  0  0  0  0  0  0
    3.0077   -1.0373    1.0523 C   0  0  0  0  0  0  0  0  0  0  0  0
    3.9825   -0.1421    1.4893 C   0  0  0  0  0  0  0  0  0  0  0  0
    4.3824    0.9044    0.6664 C   0  0  0  0  0  0  0  0  0  0  0  0
    3.8039    1.0508   -0.5935 C   0  0  0  0  0  0  0  0  0  0  0  0
    2.8354    0.1534   -1.0258 C   0  0  0  0  0  0  0  0  0  0  0  0
   -0.2816    1.0077   -0.0370 C   0  0  1  0  0  0  0  0  0  0  0  0
   -0.1818    1.4070   -1.3863 O   0  0  0  0  0  0  0  0  0  0  0  0
   -1.5197    1.6757    0.6455 C   0  0  1  0  0  0  0  0  0  0  0  0
   -2.0355    2.6802   -0.2041 O   0  0  0  0  0  0  0  0  0  0  0  0
   -2.5539    0.5326    0.8391 C   0  0  1  0  0  0  0  0  0  0  0  0
   -3.8485    1.0583    0.6140 O   0  0  0  0  0  0  0  0  0  0  0  0
   -2.1077   -0.5369   -0.1473 C   0  0  2  0  0  0  0  0  0  0  0  0
   -2.8755   -2.1463    0.1669 S   0  0  0  0  0  0  0  0  0  0  0  0
   -0.3173   -0.9233    0.9781 H   0  0  0  0  0  0  0  0  0  0  0  0
    0.1340   -0.7308   -1.8638 H   0  0  0  0  0  0  0  0  0  0  0  0
    1.1916   -2.6291    0.1073 H   0  0  0  0  0  0  0  0  0  0  0  0
    1.7171   -2.4210   -1.5566 H   0  0  0  0  0  0  0  0  0  0  0  0
    2.6950   -1.8541    1.7013 H   0  0  0  0  0  0  0  0  0  0  0  0
    4.4264   -0.2628    2.4745 H   0  0  0  0  0  0  0  0  0  0  0  0
    5.1399    1.6073    1.0039 H   0  0  0  0  0  0  0  0  0  0  0  0
    4.1082    1.8696   -1.2408 H   0  0  0  0  0  0  0  0  0  0  0  0
    2.3715    0.2925   -2.0004 H   0  0  0  0  0  0  0  0  0  0  0  0
    0.6508    1.2499    0.4861 H   0  0  0  0  0  0  0  0  0  0  0  0
   -0.8264    2.1307   -1.4889 H   0  0  0  0  0  0  0  0  0  0  0  0
   -1.2473    2.1222    1.6086 H   0  0  0  0  0  0  0  0  0  0  0  0
   -2.9978    2.5384   -0.2322 H   0  0  0  0  0  0  0  0  0  0  0  0
   -2.4758    0.1387    1.8633 H   0  0  0  0  0  0  0  0  0  0  0  0
   -4.4473    0.3287    0.4062 H   0  0  0  0  0  0  0  0  0  0  0  0
   -2.3639   -0.2000   -1.1593 H   0  0  0  0  0  0  0  0  0  0  0  0
   -2.1176   -2.7967   -0.7308 H   0  0  0  0  0  0  0  0  0  0  0  0
  1 16  1  6  0  0  0
  1 18  1  0  0  0  0
  2  3  1  0  0  0  0
  2  1  1  0  0  0  0
  3  4  1  0  0  0  0
  3 20  1  0  0  0  0
  4  5  2  0  0  0  0
  5  6  1  0  0  0  0
  5 22  1  0  0  0  0
  6 23  1  0  0  0  0
  7 24  1  0  0  0  0
  7  6  2  0  0  0  0
  8  7  1  0  0  0  0
  9  8  2  0  0  0  0
  9  4  1  0  0  0  0
 10  1  1  1  0  0  0
 10 27  1  0  0  0  0
 11 10  1  0  0  0  0
 12 10  1  6  0  0  0
 12 14  1  0  0  0  0
 12 29  1  0  0  0  0
 13 12  1  0  0  0  0
 14 16  1  6  0  0  0
 14 31  1  0  0  0  0
 15 14  1  0  0  0  0
 16 33  1  6  0  0  0
 16 17  1  0  0  0  0
 19  2  1  0  0  0  0
 21  3  1  0  0  0  0
 25  8  1  0  0  0  0
 26  9  1  0  0  0  0
 28 11  1  0  0  0  0
 30 13  1  0  0  0  0
 32 15  1  0  0  0  0
 34 17  1  0  0  0  0
M  END
