omegacsd_SEYMIS_04.log
 OpenBabel09261812563D

 45 47  0  0  0  0  0  0  0  0999 V2000
   -1.4914   -1.4807    2.3919 O   0  0  0  0  0  0  0  0  0  0  0  0
   -2.5854   -0.6805    2.1530 N   0  0  0  0  0  0  0  0  0  0  0  0
   -2.7021   -0.5910    0.8502 C   0  0  0  0  0  0  0  0  0  0  0  0
   -1.6593   -1.3316    0.1990 C   0  0  0  0  0  0  0  0  0  0  0  0
   -1.4013   -1.5484   -1.2521 C   0  0  0  0  0  0  0  0  0  0  0  0
   -2.2419   -1.9927   -2.0177 O   0  0  0  0  0  0  0  0  0  0  0  0
   -0.1282   -1.2760   -1.6912 N   0  0  0  0  0  0  0  0  0  0  0  0
    0.8141   -0.4169   -1.0766 C   0  0  0  0  0  0  0  0  0  0  0  0
    0.5695    0.8581   -0.5968 C   0  0  0  0  0  0  0  0  0  0  0  0
    1.7199    1.3619   -0.0874 N   0  0  0  0  0  0  0  0  0  0  0  0
    1.8377    2.6784    0.5249 C   0  0  0  0  0  0  0  0  0  0  0  0
    2.7211    0.4286   -0.2509 C   0  0  0  0  0  0  0  0  0  0  0  0
    2.1788   -0.6892   -0.8582 C   0  0  0  0  0  0  0  0  0  0  0  0
    4.0994    0.6764    0.1802 C   0  0  0  0  0  0  0  0  0  0  0  0
    4.4924    1.6986    0.7070 O   0  0  0  0  0  0  0  0  0  0  0  0
    4.8836   -0.3831   -0.0786 O   0  0  0  0  0  0  0  0  0  0  0  0
    6.2684   -0.2458    0.2860 C   0  0  0  0  0  0  0  0  0  0  0  0
    7.0429    0.5092   -0.7773 C   0  0  0  0  0  0  0  0  0  0  0  0
   -0.9423   -1.8556    1.2315 C   0  0  0  0  0  0  0  0  0  0  0  0
    0.2707   -2.7134    1.3078 C   0  0  0  0  0  0  0  0  0  0  0  0
   -3.7611    0.2762    0.2858 C   0  0  0  0  0  0  0  0  0  0  0  0
   -4.3840   -0.0179   -0.9299 C   0  0  0  0  0  0  0  0  0  0  0  0
   -5.3803    0.8224   -1.4186 C   0  0  0  0  0  0  0  0  0  0  0  0
   -5.7633    1.9527   -0.7037 C   0  0  0  0  0  0  0  0  0  0  0  0
   -5.1482    2.2446    0.5113 C   0  0  0  0  0  0  0  0  0  0  0  0
   -4.1517    1.4122    1.0038 C   0  0  0  0  0  0  0  0  0  0  0  0
   -0.0141   -1.4681   -2.6791 H   0  0  0  0  0  0  0  0  0  0  0  0
   -0.3533    1.4237   -0.5698 H   0  0  0  0  0  0  0  0  0  0  0  0
    0.8550    3.1526    0.4888 H   0  0  0  0  0  0  0  0  0  0  0  0
    2.5633    3.2871   -0.0161 H   0  0  0  0  0  0  0  0  0  0  0  0
    2.1676    2.5899    1.5609 H   0  0  0  0  0  0  0  0  0  0  0  0
    2.7192   -1.5908   -1.1140 H   0  0  0  0  0  0  0  0  0  0  0  0
    6.3311    0.2573    1.2542 H   0  0  0  0  0  0  0  0  0  0  0  0
    6.6239   -1.2737    0.3885 H   0  0  0  0  0  0  0  0  0  0  0  0
    6.9370    0.0213   -1.7510 H   0  0  0  0  0  0  0  0  0  0  0  0
    6.6820    1.5384   -0.8532 H   0  0  0  0  0  0  0  0  0  0  0  0
    8.1064    0.5349   -0.5174 H   0  0  0  0  0  0  0  0  0  0  0  0
    0.1437   -3.4800    2.0772 H   0  0  0  0  0  0  0  0  0  0  0  0
    0.4523   -3.1949    0.3445 H   0  0  0  0  0  0  0  0  0  0  0  0
    1.1499   -2.1098    1.5578 H   0  0  0  0  0  0  0  0  0  0  0  0
   -4.0892   -0.9044   -1.4834 H   0  0  0  0  0  0  0  0  0  0  0  0
   -5.8622    0.5864   -2.3639 H   0  0  0  0  0  0  0  0  0  0  0  0
   -6.5412    2.6059   -1.0914 H   0  0  0  0  0  0  0  0  0  0  0  0
   -5.4440    3.1252    1.0758 H   0  0  0  0  0  0  0  0  0  0  0  0
   -3.6670    1.6297    1.9514 H   0  0  0  0  0  0  0  0  0  0  0  0
  2  1  1  0  0  0  0
  3  2  2  0  0  0  0
  4  3  1  0  0  0  0
  4 19  2  0  0  0  0
  5  4  1  0  0  0  0
  6  5  2  0  0  0  0
  7  5  1  0  0  0  0
  7  8  1  0  0  0  0
  8 13  1  0  0  0  0
  8  9  2  0  0  0  0
  9 28  1  0  0  0  0
  9 10  1  0  0  0  0
 10 11  1  0  0  0  0
 11 31  1  0  0  0  0
 12 10  1  0  0  0  0
 12 14  1  0  0  0  0
 13 12  2  0  0  0  0
 14 15  2  0  0  0  0
 16 14  1  0  0  0  0
 16 17  1  0  0  0  0
 17 34  1  0  0  0  0
 17 33  1  0  0  0  0
 18 37  1  0  0  0  0
 18 17  1  0  0  0  0
 19 20  1  0  0  0  0
 19  1  1  0  0  0  0
 20 40  1  0  0  0  0
 20 38  1  0  0  0  0
 21  3  1  0  0  0  0
 21 26  2  0  0  0  0
 22 21  1  0  0  0  0
 23 22  2  0  0  0  0
 23 24  1  0  0  0  0
 24 25  2  0  0  0  0
 25 26  1  0  0  0  0
 25 44  1  0  0  0  0
 26 45  1  0  0  0  0
 27  7  1  0  0  0  0
 29 11  1  0  0  0  0
 30 11  1  0  0  0  0
 32 13  1  0  0  0  0
 35 18  1  0  0  0  0
 36 18  1  0  0  0  0
 39 20  1  0  0  0  0
 41 22  1  0  0  0  0
 42 23  1  0  0  0  0
 43 24  1  0  0  0  0
M  END
