omegacsd_SPIRIL_13.log
 OpenBabel09261812563D

 57 60  0  0  1  0  0  0  0  0999 V2000
    1.2682    0.1203   -0.9405 C   0  0  0  0  0  0  0  0  0  0  0  0
    2.0772    0.5635    0.3055 C   0  0  2  0  0  0  0  0  0  0  0  0
    1.3707    1.7472    0.9850 C   0  0  0  0  0  0  0  0  0  0  0  0
    0.1860    1.8334    1.2410 O   0  0  0  0  0  0  0  0  0  0  0  0
    2.3167    2.6731    1.2757 N   0  0  0  0  0  0  0  0  0  0  0  0
    3.6271    2.3588    0.7746 C   0  0  0  0  0  0  0  0  0  0  0  0
    3.3933    1.1500    0.0055 N   0  0  0  0  0  0  0  0  0  0  0  0
    4.4976    0.4737   -0.5088 C   0  0  0  0  0  0  0  0  0  0  0  0
    4.3864   -0.7759   -1.1429 C   0  0  0  0  0  0  0  0  0  0  0  0
    5.5033   -1.4087   -1.6716 C   0  0  0  0  0  0  0  0  0  0  0  0
    6.7649   -0.8276   -1.5954 C   0  0  0  0  0  0  0  0  0  0  0  0
    6.8854    0.4099   -0.9761 C   0  0  0  0  0  0  0  0  0  0  0  0
    5.7770    1.0544   -0.4385 C   0  0  0  0  0  0  0  0  0  0  0  0
    2.1557   -0.5897    1.3290 C   0  0  0  0  0  0  0  0  0  0  0  0
    0.7966   -1.2472    1.5907 C   0  0  0  0  0  0  0  0  0  0  0  0
    0.0542   -1.5564    0.3639 N   0  0  0  0  0  0  0  0  0  0  0  0
   -0.6111   -2.8447    0.4162 C   0  0  0  0  0  0  0  0  0  0  0  0
   -1.8593   -2.8304    1.3126 C   0  0  0  0  0  0  0  0  0  0  0  0
   -2.9810   -2.0466    0.6906 C   0  0  0  0  0  0  0  0  0  0  0  0
   -3.3235   -0.7774    0.9435 C   0  0  0  0  0  0  0  0  0  0  0  0
   -4.4079   -0.1428    0.1368 C   0  0  0  0  0  0  0  0  0  0  0  0
   -4.4355   -0.2830   -1.2550 C   0  0  0  0  0  0  0  0  0  0  0  0
   -5.4506    0.2771   -2.0228 C   0  0  0  0  0  0  0  0  0  0  0  0
   -6.4487    0.9916   -1.3824 C   0  0  0  0  0  0  0  0  0  0  0  0
   -6.4563    1.1628   -0.0073 C   0  0  0  0  0  0  0  0  0  0  0  0
   -5.4306    0.5978    0.7410 C   0  0  0  0  0  0  0  0  0  0  0  0
   -7.4359    1.5416   -2.1160 F   0  0  0  0  0  0  0  0  0  0  0  0
   -2.6402    0.0881    1.9728 C   0  0  0  0  0  0  0  0  0  0  0  0
    0.7950   -1.3311   -0.8631 C   0  0  0  0  0  0  0  0  0  0  0  0
    0.3721    0.7453   -1.0076 H   0  0  0  0  0  0  0  0  0  0  0  0
    1.8616    0.2857   -1.8450 H   0  0  0  0  0  0  0  0  0  0  0  0
    2.0742    3.5535    1.7022 H   0  0  0  0  0  0  0  0  0  0  0  0
    4.3449    2.1976    1.5973 H   0  0  0  0  0  0  0  0  0  0  0  0
    4.0161    3.1647    0.1357 H   0  0  0  0  0  0  0  0  0  0  0  0
    3.4227   -1.2600   -1.2342 H   0  0  0  0  0  0  0  0  0  0  0  0
    5.3766   -2.3753   -2.1535 H   0  0  0  0  0  0  0  0  0  0  0  0
    7.6341   -1.3279   -2.0123 H   0  0  0  0  0  0  0  0  0  0  0  0
    7.8579    0.8910   -0.9022 H   0  0  0  0  0  0  0  0  0  0  0  0
    5.9220    2.0205    0.0337 H   0  0  0  0  0  0  0  0  0  0  0  0
    2.8682   -1.3331    0.9566 H   0  0  0  0  0  0  0  0  0  0  0  0
    2.5642   -0.2148    2.2757 H   0  0  0  0  0  0  0  0  0  0  0  0
    0.1926   -0.5903    2.2281 H   0  0  0  0  0  0  0  0  0  0  0  0
    0.9838   -2.1714    2.1631 H   0  0  0  0  0  0  0  0  0  0  0  0
    0.0791   -3.6413    0.7593 H   0  0  0  0  0  0  0  0  0  0  0  0
   -0.9195   -3.1124   -0.6024 H   0  0  0  0  0  0  0  0  0  0  0  0
   -1.5922   -2.4382    2.3006 H   0  0  0  0  0  0  0  0  0  0  0  0
   -2.1795   -3.8693    1.4661 H   0  0  0  0  0  0  0  0  0  0  0  0
   -3.5407   -2.5784   -0.0811 H   0  0  0  0  0  0  0  0  0  0  0  0
   -3.6322   -0.8277   -1.7446 H   0  0  0  0  0  0  0  0  0  0  0  0
   -5.4714    0.1759   -3.1035 H   0  0  0  0  0  0  0  0  0  0  0  0
   -7.2581    1.7275    0.4584 H   0  0  0  0  0  0  0  0  0  0  0  0
   -5.4406    0.7219    1.8212 H   0  0  0  0  0  0  0  0  0  0  0  0
   -3.3355    0.8037    2.4232 H   0  0  0  0  0  0  0  0  0  0  0  0
   -2.2039   -0.5044    2.7826 H   0  0  0  0  0  0  0  0  0  0  0  0
   -1.8299    0.6636    1.5090 H   0  0  0  0  0  0  0  0  0  0  0  0
    1.6382   -2.0409   -0.9869 H   0  0  0  0  0  0  0  0  0  0  0  0
    0.1178   -1.5164   -1.7045 H   0  0  0  0  0  0  0  0  0  0  0  0
  1 29  1  0  0  0  0
  1  2  1  0  0  0  0
  2  3  1  1  0  0  0
  2 14  1  0  0  0  0
  3  4  2  0  0  0  0
  3  5  1  0  0  0  0
  5 32  1  0  0  0  0
  6  5  1  0  0  0  0
  6 33  1  0  0  0  0
  7  2  1  0  0  0  0
  7  6  1  0  0  0  0
  8 13  1  0  0  0  0
  8  7  1  0  0  0  0
  9  8  2  0  0  0  0
 10 11  2  0  0  0  0
 10  9  1  0  0  0  0
 11 12  1  0  0  0  0
 12 38  1  0  0  0  0
 12 13  2  0  0  0  0
 13 39  1  0  0  0  0
 14 15  1  0  0  0  0
 14 41  1  0  0  0  0
 15 43  1  0  0  0  0
 15 42  1  0  0  0  0
 16 17  1  0  0  0  0
 16 15  1  0  0  0  0
 17 44  1  0  0  0  0
 17 18  1  0  0  0  0
 18 47  1  0  0  0  0
 18 46  1  0  0  0  0
 19 20  2  0  0  0  0
 19 18  1  0  0  0  0
 20 28  1  0  0  0  0
 21 26  1  0  0  0  0
 21 20  1  0  0  0  0
 22 21  2  0  0  0  0
 23 24  2  0  0  0  0
 23 22  1  0  0  0  0
 24 25  1  0  0  0  0
 25 51  1  0  0  0  0
 25 26  2  0  0  0  0
 26 52  1  0  0  0  0
 27 24  1  0  0  0  0
 28 53  1  0  0  0  0
 28 54  1  0  0  0  0
 29 16  1  0  0  0  0
 30  1  1  0  0  0  0
 31  1  1  0  0  0  0
 34  6  1  0  0  0  0
 35  9  1  0  0  0  0
 36 10  1  0  0  0  0
 37 11  1  0  0  0  0
 40 14  1  0  0  0  0
 45 17  1  0  0  0  0
 48 19  1  0  0  0  0
 49 22  1  0  0  0  0
 50 23  1  0  0  0  0
 55 28  1  0  0  0  0
 56 29  1  0  0  0  0
 57 29  1  0  0  0  0
M  END
