omegapdb_2f7p_20.log
 OpenBabel09261812563D

 34 35  0  0  1  0  0  0  0  0999 V2000
   -0.4760    0.2724    0.2495 C   0  0  1  0  0  0  0  0  0  0  0  0
    0.1937    0.7922    1.4232 N   0  0  0  0  0  0  0  0  0  0  0  0
    1.4532    0.1400    1.7603 C   0  0  0  0  0  0  0  0  0  0  0  0
    2.5035    0.0764    0.6605 C   0  0  0  0  0  0  0  0  0  0  0  0
    3.1427   -1.1253    0.3564 C   0  0  0  0  0  0  0  0  0  0  0  0
    4.1175   -1.1874   -0.6367 C   0  0  0  0  0  0  0  0  0  0  0  0
    4.4609   -0.0427   -1.3477 C   0  0  0  0  0  0  0  0  0  0  0  0
    3.8249    1.1626   -1.0585 C   0  0  0  0  0  0  0  0  0  0  0  0
    2.8562    1.2186   -0.0627 C   0  0  0  0  0  0  0  0  0  0  0  0
   -0.6709   -1.2527    0.2321 C   0  0  1  0  0  0  0  0  0  0  0  0
   -1.1318   -1.6901    1.4844 O   0  0  0  0  0  0  0  0  0  0  0  0
   -1.7815   -1.4617   -0.8478 C   0  0  1  0  0  0  0  0  0  0  0  0
   -2.6777   -2.4622   -0.4170 O   0  0  0  0  0  0  0  0  0  0  0  0
   -2.4783   -0.0777   -0.9999 C   0  0  1  0  0  0  0  0  0  0  0  0
   -3.8775   -0.2619   -0.9654 O   0  0  0  0  0  0  0  0  0  0  0  0
   -1.9225    0.7515    0.1565 C   0  0  2  0  0  0  0  0  0  0  0  0
   -2.1890    2.5292   -0.1139 S   0  0  0  0  0  0  0  0  0  0  0  0
    0.0461    0.5359   -0.6915 H   0  0  0  0  0  0  0  0  0  0  0  0
    0.3399    1.7896    1.2921 H   0  0  0  0  0  0  0  0  0  0  0  0
    1.2200   -0.8746    2.1027 H   0  0  0  0  0  0  0  0  0  0  0  0
    1.8655    0.6729    2.6261 H   0  0  0  0  0  0  0  0  0  0  0  0
    2.8735   -2.0253    0.9076 H   0  0  0  0  0  0  0  0  0  0  0  0
    4.6057   -2.1337   -0.8568 H   0  0  0  0  0  0  0  0  0  0  0  0
    5.2191   -0.0875   -2.1253 H   0  0  0  0  0  0  0  0  0  0  0  0
    4.0863    2.0625   -1.6100 H   0  0  0  0  0  0  0  0  0  0  0  0
    2.3659    2.1673    0.1537 H   0  0  0  0  0  0  0  0  0  0  0  0
    0.2565   -1.7757   -0.0445 H   0  0  0  0  0  0  0  0  0  0  0  0
   -1.8133   -2.3541    1.2776 H   0  0  0  0  0  0  0  0  0  0  0  0
   -1.3354   -1.7693   -1.8004 H   0  0  0  0  0  0  0  0  0  0  0  0
   -3.5637   -2.0617   -0.4390 H   0  0  0  0  0  0  0  0  0  0  0  0
   -2.1816    0.3758   -1.9575 H   0  0  0  0  0  0  0  0  0  0  0  0
   -4.2894    0.6010   -0.8181 H   0  0  0  0  0  0  0  0  0  0  0  0
   -2.4276    0.4523    1.0793 H   0  0  0  0  0  0  0  0  0  0  0  0
   -2.2812    2.8820    1.1759 H   0  0  0  0  0  0  0  0  0  0  0  0
  1 16  1  6  0  0  0
  1  2  1  0  0  0  0
  2  3  1  0  0  0  0
  3 20  1  0  0  0  0
  3 21  1  0  0  0  0
  4  3  1  0  0  0  0
  5  4  1  0  0  0  0
  5 22  1  0  0  0  0
  6  5  2  0  0  0  0
  7  8  2  0  0  0  0
  7  6  1  0  0  0  0
  8  9  1  0  0  0  0
  9 26  1  0  0  0  0
  9  4  2  0  0  0  0
 10 12  1  6  0  0  0
 10  1  1  0  0  0  0
 10 11  1  0  0  0  0
 12 14  1  6  0  0  0
 12 13  1  0  0  0  0
 14 15  1  0  0  0  0
 14 16  1  1  0  0  0
 15 32  1  0  0  0  0
 16 33  1  1  0  0  0
 17 16  1  0  0  0  0
 17 34  1  0  0  0  0
 18  1  1  0  0  0  0
 19  2  1  0  0  0  0
 23  6  1  0  0  0  0
 24  7  1  0  0  0  0
 25  8  1  0  0  0  0
 27 10  1  0  0  0  0
 28 11  1  0  0  0  0
 29 12  1  0  0  0  0
 30 13  1  0  0  0  0
 31 14  1  0  0  0  0
M  END
