omegacsd_SPIRIL_21.log
 OpenBabel09261812563D

 57 60  0  0  1  0  0  0  0  0999 V2000
   -2.8222   -0.2702   -1.4029 C   0  0  0  0  0  0  0  0  0  0  0  0
   -3.1464   -0.9509   -0.0652 C   0  0  2  0  0  0  0  0  0  0  0  0
   -4.2212   -2.0365   -0.2603 C   0  0  0  0  0  0  0  0  0  0  0  0
   -4.2712   -2.8539   -1.1581 O   0  0  0  0  0  0  0  0  0  0  0  0
   -5.0768   -1.9342    0.8002 N   0  0  0  0  0  0  0  0  0  0  0  0
   -4.5847   -0.9719    1.7784 C   0  0  0  0  0  0  0  0  0  0  0  0
   -3.7150   -0.0913    1.0115 N   0  0  0  0  0  0  0  0  0  0  0  0
   -4.3038    1.1588    0.6305 C   0  0  0  0  0  0  0  0  0  0  0  0
   -3.4951    2.2959    0.6581 C   0  0  0  0  0  0  0  0  0  0  0  0
   -4.0079    3.5375    0.2980 C   0  0  0  0  0  0  0  0  0  0  0  0
   -5.3435    3.6610   -0.0749 C   0  0  0  0  0  0  0  0  0  0  0  0
   -6.1578    2.5325   -0.0950 C   0  0  0  0  0  0  0  0  0  0  0  0
   -5.6417    1.2858    0.2462 C   0  0  0  0  0  0  0  0  0  0  0  0
   -1.8717   -1.6513    0.4771 C   0  0  0  0  0  0  0  0  0  0  0  0
   -0.9812   -2.1201   -0.6736 C   0  0  0  0  0  0  0  0  0  0  0  0
   -0.4941   -1.0092   -1.4943 N   0  0  0  0  0  0  0  0  0  0  0  0
    0.9136   -0.6996   -1.3534 C   0  0  0  0  0  0  0  0  0  0  0  0
    1.3851   -0.2099    0.0356 C   0  0  0  0  0  0  0  0  0  0  0  0
    2.8409    0.1603    0.0111 C   0  0  0  0  0  0  0  0  0  0  0  0
    3.8784   -0.5736    0.4361 C   0  0  0  0  0  0  0  0  0  0  0  0
    5.2713   -0.0626    0.2811 C   0  0  0  0  0  0  0  0  0  0  0  0
    6.2435   -0.3096    1.2577 C   0  0  0  0  0  0  0  0  0  0  0  0
    7.5398    0.1766    1.1314 C   0  0  0  0  0  0  0  0  0  0  0  0
    7.8680    0.9112    0.0040 C   0  0  0  0  0  0  0  0  0  0  0  0
    6.9424    1.1643   -0.9952 C   0  0  0  0  0  0  0  0  0  0  0  0
    5.6523    0.6697   -0.8498 C   0  0  0  0  0  0  0  0  0  0  0  0
    9.1222    1.3807   -0.1300 F   0  0  0  0  0  0  0  0  0  0  0  0
    3.7306   -1.9213    1.1024 C   0  0  0  0  0  0  0  0  0  0  0  0
   -1.3630    0.1605   -1.4955 C   0  0  0  0  0  0  0  0  0  0  0  0
   -3.0199   -1.0082   -2.1888 H   0  0  0  0  0  0  0  0  0  0  0  0
   -3.4856    0.5789   -1.5838 H   0  0  0  0  0  0  0  0  0  0  0  0
   -5.6744   -2.7128    1.0366 H   0  0  0  0  0  0  0  0  0  0  0  0
   -4.0136   -1.4750    2.5728 H   0  0  0  0  0  0  0  0  0  0  0  0
   -5.3987   -0.4071    2.2392 H   0  0  0  0  0  0  0  0  0  0  0  0
   -2.4617    2.1882    0.9780 H   0  0  0  0  0  0  0  0  0  0  0  0
   -3.3653    4.4139    0.3237 H   0  0  0  0  0  0  0  0  0  0  0  0
   -5.7489    4.6321   -0.3463 H   0  0  0  0  0  0  0  0  0  0  0  0
   -7.2008    2.6190   -0.3895 H   0  0  0  0  0  0  0  0  0  0  0  0
   -6.2756    0.4028    0.2003 H   0  0  0  0  0  0  0  0  0  0  0  0
   -1.3393   -0.9233    1.1004 H   0  0  0  0  0  0  0  0  0  0  0  0
   -2.1382   -2.4977    1.1238 H   0  0  0  0  0  0  0  0  0  0  0  0
   -1.5516   -2.8253   -1.2936 H   0  0  0  0  0  0  0  0  0  0  0  0
   -0.1197   -2.6715   -0.2794 H   0  0  0  0  0  0  0  0  0  0  0  0
    1.1646    0.0638   -2.1031 H   0  0  0  0  0  0  0  0  0  0  0  0
    1.4962   -1.5918   -1.6196 H   0  0  0  0  0  0  0  0  0  0  0  0
    0.7993    0.6699    0.3321 H   0  0  0  0  0  0  0  0  0  0  0  0
    1.1832   -0.9837    0.7850 H   0  0  0  0  0  0  0  0  0  0  0  0
    3.0582    1.1336   -0.4312 H   0  0  0  0  0  0  0  0  0  0  0  0
    5.9852   -0.8824    2.1448 H   0  0  0  0  0  0  0  0  0  0  0  0
    8.2932   -0.0052    1.8915 H   0  0  0  0  0  0  0  0  0  0  0  0
    7.2416    1.7261   -1.8745 H   0  0  0  0  0  0  0  0  0  0  0  0
    4.9285    0.8364   -1.6433 H   0  0  0  0  0  0  0  0  0  0  0  0
    2.7377   -2.3506    0.9494 H   0  0  0  0  0  0  0  0  0  0  0  0
    3.8946   -1.8523    2.1854 H   0  0  0  0  0  0  0  0  0  0  0  0
    4.4684   -2.6293    0.7093 H   0  0  0  0  0  0  0  0  0  0  0  0
   -1.1996    0.7166   -2.4280 H   0  0  0  0  0  0  0  0  0  0  0  0
   -1.1418    0.8628   -0.6691 H   0  0  0  0  0  0  0  0  0  0  0  0
  1  2  1  0  0  0  0
  2  3  1  6  0  0  0
  2 14  1  0  0  0  0
  2  7  1  0  0  0  0
  3  5  1  0  0  0  0
  4  3  2  0  0  0  0
  5 32  1  0  0  0  0
  5  6  1  0  0  0  0
  6 34  1  0  0  0  0
  6 33  1  0  0  0  0
  7  6  1  0  0  0  0
  8  9  1  0  0  0  0
  8  7  1  0  0  0  0
  9 35  1  0  0  0  0
 10 36  1  0  0  0  0
 10  9  2  0  0  0  0
 11 10  1  0  0  0  0
 12 11  2  0  0  0  0
 12 13  1  0  0  0  0
 13  8  2  0  0  0  0
 14 40  1  0  0  0  0
 14 41  1  0  0  0  0
 15 43  1  0  0  0  0
 15 14  1  0  0  0  0
 16 17  1  0  0  0  0
 16 15  1  0  0  0  0
 17 18  1  0  0  0  0
 18 46  1  0  0  0  0
 18 47  1  0  0  0  0
 19 18  1  0  0  0  0
 19 20  2  0  0  0  0
 20 28  1  0  0  0  0
 21 20  1  0  0  0  0
 21 22  2  0  0  0  0
 22 49  1  0  0  0  0
 23 22  1  0  0  0  0
 23 50  1  0  0  0  0
 24 23  2  0  0  0  0
 25 26  2  0  0  0  0
 25 24  1  0  0  0  0
 26 21  1  0  0  0  0
 27 24  1  0  0  0  0
 28 54  1  0  0  0  0
 29 16  1  0  0  0  0
 29  1  1  0  0  0  0
 29 57  1  0  0  0  0
 30  1  1  0  0  0  0
 31  1  1  0  0  0  0
 37 11  1  0  0  0  0
 38 12  1  0  0  0  0
 39 13  1  0  0  0  0
 42 15  1  0  0  0  0
 44 17  1  0  0  0  0
 45 17  1  0  0  0  0
 48 19  1  0  0  0  0
 51 25  1  0  0  0  0
 52 26  1  0  0  0  0
 53 28  1  0  0  0  0
 55 28  1  0  0  0  0
 56 29  1  0  0  0  0
M  END
