omegacsd_CUHNEY10_15.log
 OpenBabel09261812563D

 44 47  0  0  1  0  0  0  0  0999 V2000
   -4.2534   -4.1374   -0.1571 Cl  0  0  0  0  0  0  0  0  0  0  0  0
   -3.4368   -2.6125   -0.0299 C   0  0  0  0  0  0  0  0  0  0  0  0
   -3.6385   -1.6293   -0.9902 C   0  0  0  0  0  0  0  0  0  0  0  0
   -3.0292   -0.4489   -0.9517 N   0  0  0  0  0  0  0  0  0  0  0  0
   -2.2167   -0.1926    0.0669 C   0  0  0  0  0  0  0  0  0  0  0  0
   -1.6035    1.0790    0.0751 N   0  0  0  0  0  0  0  0  0  0  0  0
   -2.1736    2.2439   -0.4715 C   0  0  0  0  0  0  0  0  0  0  0  0
   -3.2655    2.3733   -0.9551 O   0  0  0  0  0  0  0  0  0  0  0  0
   -1.1318    3.3039   -0.2535 C   0  0  0  0  0  0  0  0  0  0  0  0
   -1.1926    4.5758   -0.6276 N   0  0  0  0  0  0  0  0  0  0  0  0
   -0.1070    5.2759   -0.2956 C   0  0  0  0  0  0  0  0  0  0  0  0
    0.9847    4.7160    0.3815 C   0  0  0  0  0  0  0  0  0  0  0  0
    1.0278    3.4352    0.7573 N   0  0  0  0  0  0  0  0  0  0  0  0
   -0.0600    2.7566    0.4220 C   0  0  0  0  0  0  0  0  0  0  0  0
   -0.3119    1.2995    0.7052 C   0  0  2  0  0  0  0  0  0  0  0  0
    0.6896    0.5015    0.1004 O   0  0  0  0  0  0  0  0  0  0  0  0
    1.3733   -0.3509    0.9261 C   0  0  0  0  0  0  0  0  0  0  0  0
    1.0884   -0.5127    2.0999 O   0  0  0  0  0  0  0  0  0  0  0  0
    2.3787   -0.9714    0.2721 N   0  0  0  0  0  0  0  0  0  0  0  0
    3.1742   -1.9735    0.9739 C   0  0  0  0  0  0  0  0  0  0  0  0
    4.6633   -1.6883    0.7546 C   0  0  0  0  0  0  0  0  0  0  0  0
    5.0333   -1.5564   -0.6485 N   0  0  0  0  0  0  0  0  0  0  0  0
    4.2037   -0.5493   -1.2945 C   0  0  0  0  0  0  0  0  0  0  0  0
    2.6973   -0.7941   -1.1421 C   0  0  0  0  0  0  0  0  0  0  0  0
    5.0853   -2.8194   -1.3632 C   0  0  0  0  0  0  0  0  0  0  0  0
   -1.9417   -1.1192    1.0796 C   0  0  0  0  0  0  0  0  0  0  0  0
   -2.5633   -2.3562    1.0191 C   0  0  0  0  0  0  0  0  0  0  0  0
   -4.3078   -1.8084   -1.8293 H   0  0  0  0  0  0  0  0  0  0  0  0
   -0.0944    6.3268   -0.5755 H   0  0  0  0  0  0  0  0  0  0  0  0
    1.8491    5.3289    0.6267 H   0  0  0  0  0  0  0  0  0  0  0  0
   -0.3251    1.0848    1.7773 H   0  0  0  0  0  0  0  0  0  0  0  0
    2.9093   -2.9711    0.5945 H   0  0  0  0  0  0  0  0  0  0  0  0
    2.9150   -1.9329    2.0326 H   0  0  0  0  0  0  0  0  0  0  0  0
    5.2653   -2.4833    1.2092 H   0  0  0  0  0  0  0  0  0  0  0  0
    4.9161   -0.7478    1.2618 H   0  0  0  0  0  0  0  0  0  0  0  0
    4.4638   -0.5000   -2.3581 H   0  0  0  0  0  0  0  0  0  0  0  0
    4.4421    0.4248   -0.8470 H   0  0  0  0  0  0  0  0  0  0  0  0
    2.1294    0.0474   -1.5366 H   0  0  0  0  0  0  0  0  0  0  0  0
    2.3912   -1.6955   -1.6924 H   0  0  0  0  0  0  0  0  0  0  0  0
    5.4623   -2.6432   -2.3764 H   0  0  0  0  0  0  0  0  0  0  0  0
    4.1209   -3.3503   -1.4513 H   0  0  0  0  0  0  0  0  0  0  0  0
    5.7889   -3.4888   -0.8566 H   0  0  0  0  0  0  0  0  0  0  0  0
   -1.2447   -0.9004    1.8821 H   0  0  0  0  0  0  0  0  0  0  0  0
   -2.3783   -3.1085    1.7798 H   0  0  0  0  0  0  0  0  0  0  0  0
  1  2  1  0  0  0  0
  2 27  2  0  0  0  0
  3  4  2  0  0  0  0
  3  2  1  0  0  0  0
  4  5  1  0  0  0  0
  5  6  1  0  0  0  0
  5 26  2  0  0  0  0
  6 15  1  0  0  0  0
  7  9  1  0  0  0  0
  7  6  1  0  0  0  0
  8  7  2  0  0  0  0
  9 14  2  0  0  0  0
 10 11  2  0  0  0  0
 10  9  1  0  0  0  0
 11 12  1  0  0  0  0
 12 30  1  0  0  0  0
 12 13  2  0  0  0  0
 14 15  1  0  0  0  0
 14 13  1  0  0  0  0
 15 31  1  1  0  0  0
 16 15  1  0  0  0  0
 16 17  1  0  0  0  0
 17 18  2  0  0  0  0
 19 17  1  0  0  0  0
 19 20  1  0  0  0  0
 20 33  1  0  0  0  0
 21 20  1  0  0  0  0
 21 34  1  0  0  0  0
 21 35  1  0  0  0  0
 22 21  1  0  0  0  0
 23 24  1  0  0  0  0
 23 37  1  0  0  0  0
 23 22  1  0  0  0  0
 24 19  1  0  0  0  0
 25 42  1  0  0  0  0
 25 22  1  0  0  0  0
 26 43  1  0  0  0  0
 27 26  1  0  0  0  0
 27 44  1  0  0  0  0
 28  3  1  0  0  0  0
 29 11  1  0  0  0  0
 32 20  1  0  0  0  0
 36 23  1  0  0  0  0
 38 24  1  0  0  0  0
 39 24  1  0  0  0  0
 40 25  1  0  0  0  0
 41 25  1  0  0  0  0
M  END
