omegapdb_1z1r_29.log
 OpenBabel09261812563D

 66 68  0  0  1  0  0  0  0  0999 V2000
    0.2217   -2.1305    0.1742 C   0  0  2  0  0  0  0  0  0  0  0  0
   -0.7915   -2.9808   -0.6241 C   0  0  0  0  0  0  0  0  0  0  0  0
   -2.0781   -2.2812   -0.9793 C   0  0  0  0  0  0  0  0  0  0  0  0
   -3.2080   -2.3819   -0.1642 C   0  0  0  0  0  0  0  0  0  0  0  0
   -4.3536   -1.6388   -0.4254 C   0  0  0  0  0  0  0  0  0  0  0  0
   -4.3902   -0.7809   -1.5228 C   0  0  0  0  0  0  0  0  0  0  0  0
   -3.2994   -0.7287   -2.3940 C   0  0  0  0  0  0  0  0  0  0  0  0
   -2.1567   -1.4666   -2.1119 C   0  0  0  0  0  0  0  0  0  0  0  0
   -5.5300   -0.0504   -1.7087 O   0  0  0  0  0  0  0  0  0  0  0  0
   -5.3897    1.3280   -2.0391 C   0  0  0  0  0  0  0  0  0  0  0  0
   -5.1803    2.2242   -0.8229 C   0  0  0  0  0  0  0  0  0  0  0  0
   -3.9081    1.9495   -0.0115 C   0  0  0  0  0  0  0  0  0  0  0  0
   -4.1706    1.0603    1.2013 C   0  0  0  0  0  0  0  0  0  0  0  0
   -5.2877    0.9435    1.6800 O   0  0  0  0  0  0  0  0  0  0  0  0
   -3.0973    0.4837    1.8251 N   0  0  0  0  0  0  0  0  0  0  0  0
   -1.7631    0.2163    1.3340 C   0  0  2  0  0  0  0  0  0  0  0  0
   -1.2922   -1.0777    2.0257 C   0  0  0  0  0  0  0  0  0  0  0  0
   -1.7721   -1.3705    3.1115 O   0  0  0  0  0  0  0  0  0  0  0  0
   -0.2341   -1.8009    1.5334 N   0  0  0  0  0  0  0  0  0  0  0  0
   -0.7723    1.3398    1.7235 C   0  0  0  0  0  0  0  0  0  0  0  0
   -0.6967    2.4299    0.6691 C   0  0  0  0  0  0  0  0  0  0  0  0
   -0.4776    2.1690   -0.5074 O   0  0  0  0  0  0  0  0  0  0  0  0
   -0.8579    3.7015    1.1099 N   0  0  0  0  0  0  0  0  0  0  0  0
    0.7712   -0.9053   -0.5745 C   0  0  2  0  0  0  0  0  0  0  0  0
    1.0990   -1.3309   -1.8980 O   0  0  0  0  0  0  0  0  0  0  0  0
    2.0381   -0.3538    0.0876 C   0  0  0  0  0  0  0  0  0  0  0  0
    3.1040   -1.3336   -0.0710 N   0  0  0  0  0  0  0  0  0  0  0  0
    4.5728   -1.0608    0.6394 S   0  0  0  0  0  0  0  0  0  0  0  0
    5.4051   -2.1907    0.2698 O   0  0  0  0  0  0  0  0  0  0  0  0
    4.3022   -0.7025    2.0209 O   0  0  0  0  0  0  0  0  0  0  0  0
    5.2472    0.3844   -0.1561 C   0  0  0  0  0  0  0  0  0  0  0  0
    5.0141    1.6413    0.3945 C   0  0  0  0  0  0  0  0  0  0  0  0
    5.5105    2.7673   -0.2554 C   0  0  0  0  0  0  0  0  0  0  0  0
    6.2306    2.6287   -1.4386 C   0  0  0  0  0  0  0  0  0  0  0  0
    6.4657    1.3645   -1.9753 C   0  0  0  0  0  0  0  0  0  0  0  0
    5.9748    0.2331   -1.3341 C   0  0  0  0  0  0  0  0  0  0  0  0
    1.0911   -2.7761    0.3438 H   0  0  0  0  0  0  0  0  0  0  0  0
   -0.2825   -3.3224   -1.5301 H   0  0  0  0  0  0  0  0  0  0  0  0
   -1.0080   -3.8707   -0.0207 H   0  0  0  0  0  0  0  0  0  0  0  0
   -3.1829   -3.0267    0.7132 H   0  0  0  0  0  0  0  0  0  0  0  0
   -5.2130   -1.6667    0.2380 H   0  0  0  0  0  0  0  0  0  0  0  0
   -3.3352   -0.1118   -3.2871 H   0  0  0  0  0  0  0  0  0  0  0  0
   -1.3003   -1.4074   -2.7795 H   0  0  0  0  0  0  0  0  0  0  0  0
   -6.3264    1.5979   -2.5357 H   0  0  0  0  0  0  0  0  0  0  0  0
   -4.5785    1.4713   -2.7642 H   0  0  0  0  0  0  0  0  0  0  0  0
   -6.0376    2.1310   -0.1492 H   0  0  0  0  0  0  0  0  0  0  0  0
   -5.1632    3.2559   -1.1965 H   0  0  0  0  0  0  0  0  0  0  0  0
   -3.1008    1.5552   -0.6382 H   0  0  0  0  0  0  0  0  0  0  0  0
   -3.5264    2.8934    0.4016 H   0  0  0  0  0  0  0  0  0  0  0  0
   -3.3390   -0.0602    2.6476 H   0  0  0  0  0  0  0  0  0  0  0  0
   -1.7698    0.0927    0.2490 H   0  0  0  0  0  0  0  0  0  0  0  0
   -0.0103   -2.5240    2.2070 H   0  0  0  0  0  0  0  0  0  0  0  0
   -1.0569    1.7223    2.7083 H   0  0  0  0  0  0  0  0  0  0  0  0
    0.2425    0.9372    1.8129 H   0  0  0  0  0  0  0  0  0  0  0  0
   -0.7971    4.4539    0.4403 H   0  0  0  0  0  0  0  0  0  0  0  0
   -1.0746    3.9175    2.0691 H   0  0  0  0  0  0  0  0  0  0  0  0
    0.0357   -0.0970   -0.6251 H   0  0  0  0  0  0  0  0  0  0  0  0
    1.1051   -0.5439   -2.4581 H   0  0  0  0  0  0  0  0  0  0  0  0
    2.2876    0.6162   -0.3727 H   0  0  0  0  0  0  0  0  0  0  0  0
    1.8828   -0.2007    1.1588 H   0  0  0  0  0  0  0  0  0  0  0  0
    3.1880   -1.6876   -1.0203 H   0  0  0  0  0  0  0  0  0  0  0  0
    4.4741    1.7234    1.3333 H   0  0  0  0  0  0  0  0  0  0  0  0
    5.3426    3.7532    0.1692 H   0  0  0  0  0  0  0  0  0  0  0  0
    6.6204    3.5102   -1.9408 H   0  0  0  0  0  0  0  0  0  0  0  0
    7.0407    1.2591   -2.8912 H   0  0  0  0  0  0  0  0  0  0  0  0
    6.1698   -0.7625   -1.7228 H   0  0  0  0  0  0  0  0  0  0  0  0
  1 37  1  1  0  0  0
  1 19  1  0  0  0  0
  2 39  1  0  0  0  0
  2  1  1  0  0  0  0
  3  2  1  0  0  0  0
  3  4  2  0  0  0  0
  4 40  1  0  0  0  0
  5  4  1  0  0  0  0
  5 41  1  0  0  0  0
  6  5  2  0  0  0  0
  7  8  2  0  0  0  0
  7  6  1  0  0  0  0
  8  3  1  0  0  0  0
  9  6  1  0  0  0  0
 10  9  1  0  0  0  0
 10 11  1  0  0  0  0
 11 46  1  0  0  0  0
 11 12  1  0  0  0  0
 12 49  1  0  0  0  0
 12 13  1  0  0  0  0
 13 14  2  0  0  0  0
 13 15  1  0  0  0  0
 15 50  1  0  0  0  0
 16 51  1  6  0  0  0
 16 20  1  0  0  0  0
 16 15  1  0  0  0  0
 16 17  1  0  0  0  0
 17 18  2  0  0  0  0
 19 17  1  0  0  0  0
 19 52  1  0  0  0  0
 20 54  1  0  0  0  0
 20 53  1  0  0  0  0
 21 23  1  0  0  0  0
 21 20  1  0  0  0  0
 22 21  2  0  0  0  0
 23 56  1  0  0  0  0
 24 57  1  6  0  0  0
 24 26  1  0  0  0  0
 24  1  1  0  0  0  0
 25 24  1  0  0  0  0
 26 60  1  0  0  0  0
 27 26  1  0  0  0  0
 27 28  1  0  0  0  0
 28 30  2  0  0  0  0
 29 28  2  0  0  0  0
 31 32  1  0  0  0  0
 31 28  1  0  0  0  0
 32 62  1  0  0  0  0
 33 63  1  0  0  0  0
 33 32  2  0  0  0  0
 34 33  1  0  0  0  0
 35 34  2  0  0  0  0
 35 36  1  0  0  0  0
 36 31  2  0  0  0  0
 38  2  1  0  0  0  0
 42  7  1  0  0  0  0
 43  8  1  0  0  0  0
 44 10  1  0  0  0  0
 45 10  1  0  0  0  0
 47 11  1  0  0  0  0
 48 12  1  0  0  0  0
 55 23  1  0  0  0  0
 58 25  1  0  0  0  0
 59 26  1  0  0  0  0
 61 27  1  0  0  0  0
 64 34  1  0  0  0  0
 65 35  1  0  0  0  0
 66 36  1  0  0  0  0
M  END
