omegacsd_CDBMPI10_05.log
 OpenBabel09261812563D

 46 48  0  0  1  0  0  0  0  0999 V2000
    2.5469    2.4647   -0.0817 O   0  0  0  0  0  0  0  0  0  0  0  0
    2.4779    1.2447   -0.1553 C   0  0  0  0  0  0  0  0  0  0  0  0
    1.2684    0.6025   -0.2695 N   0  0  0  0  0  0  0  0  0  0  0  0
    0.0735    1.4664   -0.2494 C   0  0  1  0  0  0  0  0  0  0  0  0
   -1.0984    0.7135   -0.8795 C   0  0  0  0  0  0  0  0  0  0  0  0
   -1.2684   -0.6026   -0.2694 N   0  0  0  0  0  0  0  0  0  0  0  0
   -0.0735   -1.4666   -0.2495 C   0  0  1  0  0  0  0  0  0  0  0  0
    1.0983   -0.7136   -0.8798 C   0  0  0  0  0  0  0  0  0  0  0  0
    0.2341   -1.9311    1.1721 C   0  0  0  0  0  0  0  0  0  0  0  0
   -2.4779   -1.2447   -0.1551 C   0  0  0  0  0  0  0  0  0  0  0  0
   -2.5471   -2.4648   -0.0816 O   0  0  0  0  0  0  0  0  0  0  0  0
   -3.7343   -0.4206   -0.0716 C   0  0  0  0  0  0  0  0  0  0  0  0
   -3.8517    0.6781    0.7816 C   0  0  0  0  0  0  0  0  0  0  0  0
   -5.0659    1.3475    0.8965 C   0  0  0  0  0  0  0  0  0  0  0  0
   -6.1659    0.9277    0.1540 C   0  0  0  0  0  0  0  0  0  0  0  0
   -6.0559   -0.1761   -0.6881 C   0  0  0  0  0  0  0  0  0  0  0  0
   -4.8482   -0.8569   -0.7886 C   0  0  0  0  0  0  0  0  0  0  0  0
   -0.2340    1.9308    1.1724 C   0  0  0  0  0  0  0  0  0  0  0  0
    3.7343    0.4206   -0.0716 C   0  0  0  0  0  0  0  0  0  0  0  0
    3.8519   -0.6778    0.7819 C   0  0  0  0  0  0  0  0  0  0  0  0
    5.0662   -1.3471    0.8968 C   0  0  0  0  0  0  0  0  0  0  0  0
    6.1661   -0.9274    0.1541 C   0  0  0  0  0  0  0  0  0  0  0  0
    6.0558    0.1761   -0.6883 C   0  0  0  0  0  0  0  0  0  0  0  0
    4.8481    0.8568   -0.7889 C   0  0  0  0  0  0  0  0  0  0  0  0
    0.2845    2.3493   -0.8650 H   0  0  0  0  0  0  0  0  0  0  0  0
   -0.9390    0.6091   -1.9622 H   0  0  0  0  0  0  0  0  0  0  0  0
   -2.0083    1.2992   -0.7517 H   0  0  0  0  0  0  0  0  0  0  0  0
   -0.2846   -2.3494   -0.8652 H   0  0  0  0  0  0  0  0  0  0  0  0
    2.0082   -1.2993   -0.7522 H   0  0  0  0  0  0  0  0  0  0  0  0
    0.9386   -0.6090   -1.9624 H   0  0  0  0  0  0  0  0  0  0  0  0
   -0.6410   -2.4246    1.6008 H   0  0  0  0  0  0  0  0  0  0  0  0
    1.0596   -2.6526    1.1640 H   0  0  0  0  0  0  0  0  0  0  0  0
    0.5151   -1.0845    1.8084 H   0  0  0  0  0  0  0  0  0  0  0  0
   -2.9964    0.9967    1.3738 H   0  0  0  0  0  0  0  0  0  0  0  0
   -5.1540    2.1943    1.5722 H   0  0  0  0  0  0  0  0  0  0  0  0
   -7.1132    1.4537    0.2407 H   0  0  0  0  0  0  0  0  0  0  0  0
   -6.9169   -0.5143   -1.2585 H   0  0  0  0  0  0  0  0  0  0  0  0
   -4.7569   -1.7410   -1.4136 H   0  0  0  0  0  0  0  0  0  0  0  0
   -0.5149    1.0841    1.8086 H   0  0  0  0  0  0  0  0  0  0  0  0
    0.6412    2.4244    1.6010 H   0  0  0  0  0  0  0  0  0  0  0  0
   -1.0596    2.6522    1.1645 H   0  0  0  0  0  0  0  0  0  0  0  0
    2.9967   -0.9963    1.3743 H   0  0  0  0  0  0  0  0  0  0  0  0
    5.1544   -2.1936    1.5728 H   0  0  0  0  0  0  0  0  0  0  0  0
    7.1134   -1.4533    0.2408 H   0  0  0  0  0  0  0  0  0  0  0  0
    6.9168    0.5143   -1.2589 H   0  0  0  0  0  0  0  0  0  0  0  0
    4.7566    1.7407   -1.4142 H   0  0  0  0  0  0  0  0  0  0  0  0
  2  1  2  0  0  0  0
  2 19  1  0  0  0  0
  3  4  1  0  0  0  0
  3  2  1  0  0  0  0
  4 25  1  6  0  0  0
  4 18  1  0  0  0  0
  5 27  1  0  0  0  0
  5  6  1  0  0  0  0
  5  4  1  0  0  0  0
  6  7  1  0  0  0  0
  6 10  1  0  0  0  0
  7 28  1  6  0  0  0
  7  9  1  0  0  0  0
  8 29  1  0  0  0  0
  8  3  1  0  0  0  0
  8  7  1  0  0  0  0
  9 31  1  0  0  0  0
  9 33  1  0  0  0  0
 10 11  2  0  0  0  0
 10 12  1  0  0  0  0
 12 13  2  0  0  0  0
 13 14  1  0  0  0  0
 13 34  1  0  0  0  0
 14 35  1  0  0  0  0
 15 36  1  0  0  0  0
 15 14  2  0  0  0  0
 16 15  1  0  0  0  0
 17 16  2  0  0  0  0
 17 12  1  0  0  0  0
 18 40  1  0  0  0  0
 18 39  1  0  0  0  0
 19 20  2  0  0  0  0
 20 21  1  0  0  0  0
 20 42  1  0  0  0  0
 21 43  1  0  0  0  0
 22 44  1  0  0  0  0
 22 21  2  0  0  0  0
 23 22  1  0  0  0  0
 24 23  2  0  0  0  0
 24 19  1  0  0  0  0
 26  5  1  0  0  0  0
 30  8  1  0  0  0  0
 32  9  1  0  0  0  0
 37 16  1  0  0  0  0
 38 17  1  0  0  0  0
 41 18  1  0  0  0  0
 45 23  1  0  0  0  0
 46 24  1  0  0  0  0
M  END
