omegacsd_SPIRIL_19.log
 OpenBabel09261812563D

 57 60  0  0  1  0  0  0  0  0999 V2000
    2.5105   -1.1803    1.0556 C   0  0  0  0  0  0  0  0  0  0  0  0
    3.4972   -1.1254   -0.1402 C   0  0  2  0  0  0  0  0  0  0  0  0
    4.3227   -2.4195   -0.0442 C   0  0  0  0  0  0  0  0  0  0  0  0
    3.8772   -3.5450   -0.1482 O   0  0  0  0  0  0  0  0  0  0  0  0
    5.6120   -2.0751    0.1805 N   0  0  0  0  0  0  0  0  0  0  0  0
    5.8349   -0.6586    0.2932 C   0  0  0  0  0  0  0  0  0  0  0  0
    4.5443   -0.1014   -0.0605 N   0  0  0  0  0  0  0  0  0  0  0  0
    4.3788    1.2813   -0.0189 C   0  0  0  0  0  0  0  0  0  0  0  0
    5.4709    2.1080    0.3030 C   0  0  0  0  0  0  0  0  0  0  0  0
    5.3364    3.4920    0.3301 C   0  0  0  0  0  0  0  0  0  0  0  0
    4.1210    4.0984    0.0419 C   0  0  0  0  0  0  0  0  0  0  0  0
    3.0377    3.2861   -0.2811 C   0  0  0  0  0  0  0  0  0  0  0  0
    3.1526    1.9026   -0.3162 C   0  0  0  0  0  0  0  0  0  0  0  0
    2.7414   -1.1454   -1.4987 C   0  0  0  0  0  0  0  0  0  0  0  0
    1.2424   -1.3613   -1.3140 C   0  0  0  0  0  0  0  0  0  0  0  0
    0.7100   -0.3312   -0.4358 N   0  0  0  0  0  0  0  0  0  0  0  0
   -0.7186   -0.1053   -0.5393 C   0  0  0  0  0  0  0  0  0  0  0  0
   -1.6260   -1.3003   -0.1749 C   0  0  0  0  0  0  0  0  0  0  0  0
   -3.0795   -0.9458   -0.3332 C   0  0  0  0  0  0  0  0  0  0  0  0
   -3.8869   -0.4359    0.6068 C   0  0  0  0  0  0  0  0  0  0  0  0
   -5.2992   -0.0851    0.2805 C   0  0  0  0  0  0  0  0  0  0  0  0
   -6.3202   -0.2609    1.2222 C   0  0  0  0  0  0  0  0  0  0  0  0
   -7.6432    0.0465    0.9255 C   0  0  0  0  0  0  0  0  0  0  0  0
   -7.9436    0.5479   -0.3299 C   0  0  0  0  0  0  0  0  0  0  0  0
   -6.9624    0.7540   -1.2862 C   0  0  0  0  0  0  0  0  0  0  0  0
   -5.6464    0.4405   -0.9702 C   0  0  0  0  0  0  0  0  0  0  0  0
   -9.2203    0.8546   -0.6252 F   0  0  0  0  0  0  0  0  0  0  0  0
   -3.4491   -0.2050    2.0342 C   0  0  0  0  0  0  0  0  0  0  0  0
    1.2090   -0.3767    0.9357 C   0  0  0  0  0  0  0  0  0  0  0  0
    3.0387   -0.8886    1.9704 H   0  0  0  0  0  0  0  0  0  0  0  0
    2.2464   -2.2379    1.1656 H   0  0  0  0  0  0  0  0  0  0  0  0
    6.3300   -2.7702    0.3098 H   0  0  0  0  0  0  0  0  0  0  0  0
    6.1442   -0.3811    1.3159 H   0  0  0  0  0  0  0  0  0  0  0  0
    6.6176   -0.3198   -0.4015 H   0  0  0  0  0  0  0  0  0  0  0  0
    6.4408    1.6818    0.5381 H   0  0  0  0  0  0  0  0  0  0  0  0
    6.2028    4.0977    0.5853 H   0  0  0  0  0  0  0  0  0  0  0  0
    4.0184    5.1795    0.0664 H   0  0  0  0  0  0  0  0  0  0  0  0
    2.0744    3.7334   -0.5158 H   0  0  0  0  0  0  0  0  0  0  0  0
    2.2815    1.3127   -0.5854 H   0  0  0  0  0  0  0  0  0  0  0  0
    2.9056   -0.1949   -2.0131 H   0  0  0  0  0  0  0  0  0  0  0  0
    3.1479   -1.9385   -2.1353 H   0  0  0  0  0  0  0  0  0  0  0  0
    1.0521   -2.3893   -0.9580 H   0  0  0  0  0  0  0  0  0  0  0  0
    0.7430   -1.2634   -2.2854 H   0  0  0  0  0  0  0  0  0  0  0  0
   -0.9755    0.7461    0.1054 H   0  0  0  0  0  0  0  0  0  0  0  0
   -0.9431    0.2072   -1.5684 H   0  0  0  0  0  0  0  0  0  0  0  0
   -1.3876   -2.1447   -0.8333 H   0  0  0  0  0  0  0  0  0  0  0  0
   -1.4109   -1.6362    0.8457 H   0  0  0  0  0  0  0  0  0  0  0  0
   -3.4952   -1.1038   -1.3287 H   0  0  0  0  0  0  0  0  0  0  0  0
   -6.0859   -0.6590    2.2060 H   0  0  0  0  0  0  0  0  0  0  0  0
   -8.4378   -0.0971    1.6509 H   0  0  0  0  0  0  0  0  0  0  0  0
   -7.2332    1.1682   -2.2524 H   0  0  0  0  0  0  0  0  0  0  0  0
   -4.8668    0.6287   -1.7036 H   0  0  0  0  0  0  0  0  0  0  0  0
   -3.8569   -0.9702    2.7072 H   0  0  0  0  0  0  0  0  0  0  0  0
   -2.3616   -0.2253    2.1400 H   0  0  0  0  0  0  0  0  0  0  0  0
   -3.8054    0.7655    2.3966 H   0  0  0  0  0  0  0  0  0  0  0  0
    0.4788   -0.8415    1.6208 H   0  0  0  0  0  0  0  0  0  0  0  0
    1.3562    0.6525    1.2893 H   0  0  0  0  0  0  0  0  0  0  0  0
  1 31  1  0  0  0  0
  1 30  1  0  0  0  0
  2  7  1  0  0  0  0
  2  3  1  1  0  0  0
  2  1  1  0  0  0  0
  3  5  1  0  0  0  0
  4  3  2  0  0  0  0
  5  6  1  0  0  0  0
  5 32  1  0  0  0  0
  6 33  1  0  0  0  0
  7  8  1  0  0  0  0
  7  6  1  0  0  0  0
  8  9  2  0  0  0  0
  9 10  1  0  0  0  0
  9 35  1  0  0  0  0
 10 36  1  0  0  0  0
 11 37  1  0  0  0  0
 11 10  2  0  0  0  0
 12 11  1  0  0  0  0
 13 12  2  0  0  0  0
 13  8  1  0  0  0  0
 14 15  1  0  0  0  0
 14  2  1  0  0  0  0
 15 42  1  0  0  0  0
 15 16  1  0  0  0  0
 16 29  1  0  0  0  0
 17 16  1  0  0  0  0
 17 18  1  0  0  0  0
 17 44  1  0  0  0  0
 18 47  1  0  0  0  0
 19 18  1  0  0  0  0
 19 20  2  0  0  0  0
 20 28  1  0  0  0  0
 21 20  1  0  0  0  0
 21 22  2  0  0  0  0
 22 49  1  0  0  0  0
 23 22  1  0  0  0  0
 23 50  1  0  0  0  0
 24 23  2  0  0  0  0
 25 26  2  0  0  0  0
 25 24  1  0  0  0  0
 26 21  1  0  0  0  0
 27 24  1  0  0  0  0
 28 54  1  0  0  0  0
 28 55  1  0  0  0  0
 28 53  1  0  0  0  0
 29  1  1  0  0  0  0
 29 57  1  0  0  0  0
 29 56  1  0  0  0  0
 34  6  1  0  0  0  0
 38 12  1  0  0  0  0
 39 13  1  0  0  0  0
 40 14  1  0  0  0  0
 41 14  1  0  0  0  0
 43 15  1  0  0  0  0
 45 17  1  0  0  0  0
 46 18  1  0  0  0  0
 48 19  1  0  0  0  0
 51 25  1  0  0  0  0
 52 26  1  0  0  0  0
M  END
