omegapdb_1qxw_14.log
 OpenBabel09261812563D

 36 36  0  0  1  0  0  0  0  0999 V2000
   -4.1223   -1.6121    0.5418 C   0  0  0  0  0  0  0  0  0  0  0  0
   -3.6277   -1.6752   -0.8821 C   0  0  0  0  0  0  0  0  0  0  0  0
   -3.5508   -0.3900   -0.0979 C   0  0  0  0  0  0  0  0  0  0  0  0
   -2.2959    0.1329    0.3712 N   0  0  0  0  0  0  0  0  0  0  0  0
   -1.4687    0.7016   -0.6868 C   0  0  0  0  0  0  0  0  0  0  0  0
   -0.2377    1.4012   -0.0807 C   0  0  0  0  0  0  0  0  0  0  0  0
    0.9025    0.4620    0.3572 C   0  0  1  0  0  0  0  0  0  0  0  0
    0.4004   -0.3988    1.4336 N   0  0  0  0  0  0  0  0  0  0  0  0
    1.4645   -0.3815   -0.7868 C   0  0  0  0  0  0  0  0  0  0  0  0
    2.7371   -1.1655   -0.4437 C   0  0  0  0  0  0  0  0  0  0  0  0
    3.9280   -0.3021   -0.0250 C   0  0  0  0  0  0  0  0  0  0  0  0
    5.2076   -1.1179    0.1435 C   0  0  0  0  0  0  0  0  0  0  0  0
   -0.6671    2.1482    1.0360 O   0  0  0  0  0  0  0  0  0  0  0  0
    0.3288    2.2776   -1.0221 O   0  0  0  0  0  0  0  0  0  0  0  0
   -3.5242   -2.1059    1.3042 H   0  0  0  0  0  0  0  0  0  0  0  0
   -5.1922   -1.6504    0.7247 H   0  0  0  0  0  0  0  0  0  0  0  0
   -2.6945   -2.2043   -1.0621 H   0  0  0  0  0  0  0  0  0  0  0  0
   -4.3577   -1.7620   -1.6822 H   0  0  0  0  0  0  0  0  0  0  0  0
   -4.2547    0.3928   -0.3780 H   0  0  0  0  0  0  0  0  0  0  0  0
   -1.7464   -0.5820    0.8485 H   0  0  0  0  0  0  0  0  0  0  0  0
   -2.0577    1.4735   -1.2005 H   0  0  0  0  0  0  0  0  0  0  0  0
   -1.1605   -0.0251   -1.4526 H   0  0  0  0  0  0  0  0  0  0  0  0
    1.6872    1.1521    0.7067 H   0  0  0  0  0  0  0  0  0  0  0  0
    0.1780    0.1954    2.2287 H   0  0  0  0  0  0  0  0  0  0  0  0
    1.1364   -1.0282    1.7410 H   0  0  0  0  0  0  0  0  0  0  0  0
    0.6955   -1.0938   -1.1130 H   0  0  0  0  0  0  0  0  0  0  0  0
    1.6698    0.2873   -1.6310 H   0  0  0  0  0  0  0  0  0  0  0  0
    3.0227   -1.7531   -1.3271 H   0  0  0  0  0  0  0  0  0  0  0  0
    2.5316   -1.9084    0.3421 H   0  0  0  0  0  0  0  0  0  0  0  0
    3.7045    0.2180    0.9157 H   0  0  0  0  0  0  0  0  0  0  0  0
    4.0842    0.4835   -0.7771 H   0  0  0  0  0  0  0  0  0  0  0  0
    5.4844   -1.6134   -0.7946 H   0  0  0  0  0  0  0  0  0  0  0  0
    5.0807   -1.8982    0.9038 H   0  0  0  0  0  0  0  0  0  0  0  0
    6.0487   -0.4871    0.4500 H   0  0  0  0  0  0  0  0  0  0  0  0
   -1.5366    1.7670    1.2689 H   0  0  0  0  0  0  0  0  0  0  0  0
   -0.2200    3.0733   -0.9986 H   0  0  0  0  0  0  0  0  0  0  0  0
  1 16  1  0  0  0  0
  1 15  1  0  0  0  0
  2  3  1  0  0  0  0
  2  1  1  0  0  0  0
  3  4  1  0  0  0  0
  3  1  1  0  0  0  0
  4 20  1  0  0  0  0
  5  6  1  0  0  0  0
  5  4  1  0  0  0  0
  6  7  1  0  0  0  0
  6 13  1  0  0  0  0
  7 23  1  1  0  0  0
  7  8  1  0  0  0  0
  8 25  1  0  0  0  0
  8 24  1  0  0  0  0
  9 10  1  0  0  0  0
  9  7  1  0  0  0  0
 10 11  1  0  0  0  0
 10 29  1  0  0  0  0
 11 12  1  0  0  0  0
 11 30  1  0  0  0  0
 12 34  1  0  0  0  0
 12 33  1  0  0  0  0
 13 35  1  0  0  0  0
 14 36  1  0  0  0  0
 14  6  1  0  0  0  0
 17  2  1  0  0  0  0
 18  2  1  0  0  0  0
 19  3  1  0  0  0  0
 21  5  1  0  0  0  0
 22  5  1  0  0  0  0
 26  9  1  0  0  0  0
 27  9  1  0  0  0  0
 28 10  1  0  0  0  0
 31 11  1  0  0  0  0
 32 12  1  0  0  0  0
M  END
