omegacsd_FIBREN_05.log
 OpenBabel09261812563D

 39 41  0  0  1  0  0  0  0  0999 V2000
    3.5014    1.2799    0.3381 N   0  0  0  0  0  0  0  0  0  0  0  0
    2.3380    1.9223    0.3742 C   0  0  0  0  0  0  0  0  0  0  0  0
    1.1083    1.3755    0.2253 N   0  0  0  0  0  0  0  0  0  0  0  0
    0.9838    0.0550    0.0125 C   0  0  0  0  0  0  0  0  0  0  0  0
    2.1633   -0.7103   -0.0395 C   0  0  1  0  0  0  0  0  0  0  0  0
    3.3381   -0.0208    0.1325 C   0  0  0  0  0  0  0  0  0  0  0  0
    4.3478   -0.9262    0.0550 O   0  0  0  0  0  0  0  0  0  0  0  0
    3.7130   -2.1252   -0.1604 C   0  0  0  0  0  0  0  0  0  0  0  0
    2.4257   -2.0625   -0.2265 N   0  0  0  0  0  0  0  0  0  0  0  0
    4.5844   -3.3211   -0.2790 C   0  0  0  0  0  0  0  0  0  0  0  0
   -0.2344   -0.4959   -0.1497 N   0  0  0  0  0  0  0  0  0  0  0  0
   -1.4831    0.2443    0.0314 C   0  0  1  0  0  0  0  0  0  0  0  0
   -1.7202    1.2686   -1.1159 C   0  0  0  0  0  0  0  0  0  0  0  0
   -1.9882    2.6838   -0.6129 C   0  0  0  0  0  0  0  0  0  0  0  0
   -2.9789    3.3085   -0.8952 O   0  0  0  0  0  0  0  0  0  0  0  0
   -1.0320    3.1953    0.1742 O   0  0  0  0  0  0  0  0  0  0  0  0
   -2.6183   -0.7518    0.1600 C   0  0  0  0  0  0  0  0  0  0  0  0
   -3.4266   -0.7604    1.2942 C   0  0  0  0  0  0  0  0  0  0  0  0
   -4.4707   -1.6744    1.4108 C   0  0  0  0  0  0  0  0  0  0  0  0
   -4.7092   -2.5943    0.3960 C   0  0  0  0  0  0  0  0  0  0  0  0
   -3.9051   -2.5929   -0.7415 C   0  0  0  0  0  0  0  0  0  0  0  0
   -2.8695   -1.6736   -0.8603 C   0  0  0  0  0  0  0  0  0  0  0  0
    2.3641    3.4031    0.6214 C   0  0  0  0  0  0  0  0  0  0  0  0
    5.3090   -3.1906   -1.0883 H   0  0  0  0  0  0  0  0  0  0  0  0
    3.9632   -4.1938   -0.4834 H   0  0  0  0  0  0  0  0  0  0  0  0
    5.1417   -3.4820    0.6490 H   0  0  0  0  0  0  0  0  0  0  0  0
   -0.2733   -1.5048   -0.1882 H   0  0  0  0  0  0  0  0  0  0  0  0
   -1.4062    0.7920    0.9792 H   0  0  0  0  0  0  0  0  0  0  0  0
   -0.8335    1.2986   -1.7591 H   0  0  0  0  0  0  0  0  0  0  0  0
   -2.5729    0.9764   -1.7313 H   0  0  0  0  0  0  0  0  0  0  0  0
   -0.2736    2.5623    0.2430 H   0  0  0  0  0  0  0  0  0  0  0  0
   -3.2415   -0.0437    2.0916 H   0  0  0  0  0  0  0  0  0  0  0  0
   -5.0963   -1.6673    2.2995 H   0  0  0  0  0  0  0  0  0  0  0  0
   -5.5213   -3.3107    0.4880 H   0  0  0  0  0  0  0  0  0  0  0  0
   -4.0891   -3.3064   -1.5404 H   0  0  0  0  0  0  0  0  0  0  0  0
   -2.2545   -1.6669   -1.7594 H   0  0  0  0  0  0  0  0  0  0  0  0
    1.7382    3.9280   -0.1067 H   0  0  0  0  0  0  0  0  0  0  0  0
    1.9566    3.6222    1.6145 H   0  0  0  0  0  0  0  0  0  0  0  0
    3.3886    3.7731    0.5680 H   0  0  0  0  0  0  0  0  0  0  0  0
  1  2  2  0  0  0  0
  2 23  1  0  0  0  0
  3  2  1  0  0  0  0
  4  3  2  0  0  0  0
  5  9  1  1  0  0  0
  5  4  1  0  0  0  0
  5  6  1  0  0  0  0
  6  1  2  0  0  0  0
  7  6  1  0  0  0  0
  8  7  1  0  0  0  0
  9  8  2  0  0  0  0
 10  8  1  0  0  0  0
 10 26  1  0  0  0  0
 11  4  1  0  0  0  0
 11 12  1  0  0  0  0
 12 17  1  0  0  0  0
 12 28  1  1  0  0  0
 13 14  1  0  0  0  0
 13 12  1  0  0  0  0
 14 16  1  0  0  0  0
 15 14  2  0  0  0  0
 16 31  1  0  0  0  0
 17 18  2  0  0  0  0
 18 19  1  0  0  0  0
 18 32  1  0  0  0  0
 19 33  1  0  0  0  0
 20 34  1  0  0  0  0
 20 19  2  0  0  0  0
 21 20  1  0  0  0  0
 22 21  2  0  0  0  0
 22 17  1  0  0  0  0
 23 38  1  0  0  0  0
 24 10  1  0  0  0  0
 25 10  1  0  0  0  0
 27 11  1  0  0  0  0
 29 13  1  0  0  0  0
 30 13  1  0  0  0  0
 35 21  1  0  0  0  0
 36 22  1  0  0  0  0
 37 23  1  0  0  0  0
 39 23  1  0  0  0  0
M  RAD  1   5   2
M  END
