omegapdb_1xom_19.log
 OpenBabel09261812563D

 50 52  0  0  1  0  0  0  0  0999 V2000
   -6.0392    0.8804    0.9084 O   0  0  0  0  0  0  0  0  0  0  0  0
   -5.1665    1.3073   -0.0282 C   0  0  0  0  0  0  0  0  0  0  0  0
   -5.5389    2.0307   -0.9141 O   0  0  0  0  0  0  0  0  0  0  0  0
   -3.7140    0.8428    0.0757 C   0  0  1  0  0  0  0  0  0  0  0  0
   -3.3636   -0.0226    1.2909 C   0  0  0  0  0  0  0  0  0  0  0  0
   -1.8796   -0.3968    1.2894 C   0  0  0  0  0  0  0  0  0  0  0  0
   -1.4468   -1.1165   -0.0140 C   0  0  2  0  0  0  0  0  0  0  0  0
   -1.8465   -0.2502   -1.2370 C   0  0  0  0  0  0  0  0  0  0  0  0
   -3.3246    0.1351   -1.2318 C   0  0  0  0  0  0  0  0  0  0  0  0
   -2.2133   -2.3783   -0.0894 C   0  0  0  0  0  0  0  0  0  0  0  0
   -2.8581   -3.3381   -0.1385 N   0  0  0  0  0  0  0  0  0  0  0  0
    0.0554   -1.4127   -0.0117 C   0  0  0  0  0  0  0  0  0  0  0  0
    0.5637   -2.6941   -0.1209 C   0  0  0  0  0  0  0  0  0  0  0  0
    1.9467   -2.9144   -0.1280 C   0  0  0  0  0  0  0  0  0  0  0  0
    2.8328   -1.8566   -0.0230 C   0  0  0  0  0  0  0  0  0  0  0  0
    4.1837   -1.9618   -0.0173 O   0  0  0  0  0  0  0  0  0  0  0  0
    4.7313   -3.2565   -0.1347 C   0  0  0  0  0  0  0  0  0  0  0  0
    2.3245   -0.5388    0.0913 C   0  0  0  0  0  0  0  0  0  0  0  0
    0.9549   -0.3361    0.0915 C   0  0  0  0  0  0  0  0  0  0  0  0
    3.2655    0.4301    0.2026 O   0  0  0  0  0  0  0  0  0  0  0  0
    2.8661    1.7831    0.3477 C   0  0  0  0  0  0  0  0  0  0  0  0
    2.4381    2.4616   -0.9572 C   0  0  0  0  0  0  0  0  0  0  0  0
    2.6105    3.9616   -0.6653 C   0  0  0  0  0  0  0  0  0  0  0  0
    3.6885    4.0561    0.4511 C   0  0  0  0  0  0  0  0  0  0  0  0
    4.0753    2.6052    0.7847 C   0  0  0  0  0  0  0  0  0  0  0  0
   -5.6053    0.2840    1.5332 H   0  0  0  0  0  0  0  0  0  0  0  0
   -3.1314    1.7736    0.1358 H   0  0  0  0  0  0  0  0  0  0  0  0
   -3.5891    0.5077    2.2258 H   0  0  0  0  0  0  0  0  0  0  0  0
   -3.9581   -0.9492    1.2792 H   0  0  0  0  0  0  0  0  0  0  0  0
   -1.2769    0.5142    1.3864 H   0  0  0  0  0  0  0  0  0  0  0  0
   -1.6400   -1.0315    2.1491 H   0  0  0  0  0  0  0  0  0  0  0  0
   -1.5896   -0.7869   -2.1565 H   0  0  0  0  0  0  0  0  0  0  0  0
   -1.2298    0.6575   -1.2155 H   0  0  0  0  0  0  0  0  0  0  0  0
   -3.9436   -0.7638   -1.3579 H   0  0  0  0  0  0  0  0  0  0  0  0
   -3.5486    0.7974   -2.0729 H   0  0  0  0  0  0  0  0  0  0  0  0
   -0.1035   -3.5473   -0.2046 H   0  0  0  0  0  0  0  0  0  0  0  0
    2.3148   -3.9310   -0.2166 H   0  0  0  0  0  0  0  0  0  0  0  0
    4.4423   -3.7306   -1.0818 H   0  0  0  0  0  0  0  0  0  0  0  0
    5.8143   -3.1277   -0.1107 H   0  0  0  0  0  0  0  0  0  0  0  0
    4.4234   -3.9006    0.6994 H   0  0  0  0  0  0  0  0  0  0  0  0
    0.5726    0.6764    0.1666 H   0  0  0  0  0  0  0  0  0  0  0  0
    2.0713    1.8543    1.1065 H   0  0  0  0  0  0  0  0  0  0  0  0
    1.4269    2.2016   -1.2867 H   0  0  0  0  0  0  0  0  0  0  0  0
    3.1333    2.1294   -1.7378 H   0  0  0  0  0  0  0  0  0  0  0  0
    2.8948    4.5141   -1.5657 H   0  0  0  0  0  0  0  0  0  0  0  0
    1.6658    4.3946   -0.3184 H   0  0  0  0  0  0  0  0  0  0  0  0
    3.2791    4.5585    1.3339 H   0  0  0  0  0  0  0  0  0  0  0  0
    4.5589    4.6384    0.1351 H   0  0  0  0  0  0  0  0  0  0  0  0
    4.9307    2.2752    0.1836 H   0  0  0  0  0  0  0  0  0  0  0  0
    4.3301    2.4492    1.8368 H   0  0  0  0  0  0  0  0  0  0  0  0
  1 26  1  0  0  0  0
  2  4  1  0  0  0  0
  2  1  1  0  0  0  0
  3  2  2  0  0  0  0
  4 27  1  1  0  0  0
  4  5  1  0  0  0  0
  5 28  1  0  0  0  0
  6  5  1  0  0  0  0
  6 30  1  0  0  0  0
  6 31  1  0  0  0  0
  7 10  1  6  0  0  0
  7 12  1  0  0  0  0
  7  6  1  0  0  0  0
  8  9  1  0  0  0  0
  8 33  1  0  0  0  0
  8  7  1  0  0  0  0
  9  4  1  0  0  0  0
 11 10  3  0  0  0  0
 12 19  2  0  0  0  0
 13 12  1  0  0  0  0
 14 13  2  0  0  0  0
 14 15  1  0  0  0  0
 15 16  1  0  0  0  0
 15 18  2  0  0  0  0
 17 39  1  0  0  0  0
 17 16  1  0  0  0  0
 17 40  1  0  0  0  0
 18 19  1  0  0  0  0
 18 20  1  0  0  0  0
 19 41  1  0  0  0  0
 20 21  1  0  0  0  0
 21 25  1  0  0  0  0
 21 42  1  0  0  0  0
 22 23  1  0  0  0  0
 22 21  1  0  0  0  0
 23 46  1  0  0  0  0
 23 24  1  0  0  0  0
 24 25  1  0  0  0  0
 24 47  1  0  0  0  0
 25 50  1  0  0  0  0
 29  5  1  0  0  0  0
 32  8  1  0  0  0  0
 34  9  1  0  0  0  0
 35  9  1  0  0  0  0
 36 13  1  0  0  0  0
 37 14  1  0  0  0  0
 38 17  1  0  0  0  0
 43 22  1  0  0  0  0
 44 22  1  0  0  0  0
 45 23  1  0  0  0  0
 48 24  1  0  0  0  0
 49 25  1  0  0  0  0
M  END
