omegapdb_1qxw_32.log
 OpenBabel09261812563D

 36 36  0  0  1  0  0  0  0  0999 V2000
    4.5000   -1.1904   -0.3318 C   0  0  0  0  0  0  0  0  0  0  0  0
    4.3328    0.0151    0.5496 C   0  0  0  0  0  0  0  0  0  0  0  0
    3.2221   -0.4055   -0.3676 C   0  0  0  0  0  0  0  0  0  0  0  0
    2.0808   -1.0172    0.2533 N   0  0  0  0  0  0  0  0  0  0  0  0
    1.0748   -0.1505    0.8339 C   0  0  0  0  0  0  0  0  0  0  0  0
    0.1824    0.6271   -0.1467 C   0  0  0  0  0  0  0  0  0  0  0  0
   -0.9967    1.3575    0.5399 C   0  0  1  0  0  0  0  0  0  0  0  0
   -1.7994    2.1321   -0.4073 N   0  0  0  0  0  0  0  0  0  0  0  0
   -1.8977    0.4888    1.4372 C   0  0  0  0  0  0  0  0  0  0  0  0
   -2.5434   -0.7778    0.8620 C   0  0  0  0  0  0  0  0  0  0  0  0
   -3.5181   -0.5656   -0.2979 C   0  0  0  0  0  0  0  0  0  0  0  0
   -4.3303   -1.8235   -0.5988 C   0  0  0  0  0  0  0  0  0  0  0  0
    1.0140    1.5680   -0.7942 O   0  0  0  0  0  0  0  0  0  0  0  0
   -0.3723   -0.2338   -1.1255 O   0  0  0  0  0  0  0  0  0  0  0  0
    5.1707   -1.1236   -1.1837 H   0  0  0  0  0  0  0  0  0  0  0  0
    4.4591   -2.1639    0.1478 H   0  0  0  0  0  0  0  0  0  0  0  0
    4.8830    0.9195    0.3071 H   0  0  0  0  0  0  0  0  0  0  0  0
    4.1825   -0.1638    1.6103 H   0  0  0  0  0  0  0  0  0  0  0  0
    3.0581    0.2342   -1.2358 H   0  0  0  0  0  0  0  0  0  0  0  0
    1.6677   -1.7439   -0.3206 H   0  0  0  0  0  0  0  0  0  0  0  0
    0.4272   -0.7748    1.4582 H   0  0  0  0  0  0  0  0  0  0  0  0
    1.5786    0.5699    1.4890 H   0  0  0  0  0  0  0  0  0  0  0  0
   -0.5226    2.0893    1.2064 H   0  0  0  0  0  0  0  0  0  0  0  0
   -2.0056    1.5866   -1.2383 H   0  0  0  0  0  0  0  0  0  0  0  0
   -1.3331    2.9888   -0.6854 H   0  0  0  0  0  0  0  0  0  0  0  0
   -1.3221    0.2032    2.3276 H   0  0  0  0  0  0  0  0  0  0  0  0
   -2.6902    1.1601    1.7900 H   0  0  0  0  0  0  0  0  0  0  0  0
   -3.0890   -1.2585    1.6872 H   0  0  0  0  0  0  0  0  0  0  0  0
   -1.7706   -1.4900    0.5470 H   0  0  0  0  0  0  0  0  0  0  0  0
   -4.1919    0.2701   -0.0671 H   0  0  0  0  0  0  0  0  0  0  0  0
   -2.9568   -0.2838   -1.1964 H   0  0  0  0  0  0  0  0  0  0  0  0
   -5.0103   -1.6719   -1.4441 H   0  0  0  0  0  0  0  0  0  0  0  0
   -4.9344   -2.1202    0.2672 H   0  0  0  0  0  0  0  0  0  0  0  0
   -3.6717   -2.6648   -0.8464 H   0  0  0  0  0  0  0  0  0  0  0  0
    0.4366    2.0484   -1.4055 H   0  0  0  0  0  0  0  0  0  0  0  0
    0.3756   -0.5405   -1.6579 H   0  0  0  0  0  0  0  0  0  0  0  0
  1 16  1  0  0  0  0
  1  2  1  0  0  0  0
  2 18  1  0  0  0  0
  3  1  1  0  0  0  0
  3  4  1  0  0  0  0
  3  2  1  0  0  0  0
  4  5  1  0  0  0  0
  5 21  1  0  0  0  0
  5 22  1  0  0  0  0
  6  7  1  0  0  0  0
  6  5  1  0  0  0  0
  7 23  1  1  0  0  0
  7  9  1  0  0  0  0
  8  7  1  0  0  0  0
  9 27  1  0  0  0  0
  9 26  1  0  0  0  0
 10  9  1  0  0  0  0
 10 28  1  0  0  0  0
 11 30  1  0  0  0  0
 11 10  1  0  0  0  0
 12 11  1  0  0  0  0
 12 33  1  0  0  0  0
 13  6  1  0  0  0  0
 14  6  1  0  0  0  0
 15  1  1  0  0  0  0
 17  2  1  0  0  0  0
 19  3  1  0  0  0  0
 20  4  1  0  0  0  0
 24  8  1  0  0  0  0
 25  8  1  0  0  0  0
 29 10  1  0  0  0  0
 31 11  1  0  0  0  0
 32 12  1  0  0  0  0
 34 12  1  0  0  0  0
 35 13  1  0  0  0  0
 36 14  1  0  0  0  0
M  END
