omegapdb_1m5f_01.log
 OpenBabel09261812563D

 25 25  0  0  1  0  0  0  0  0999 V2000
    0.7694   -2.3407   -0.4678 O   0  0  0  0  0  0  0  0  0  0  0  0
    1.9604   -1.7265   -0.2493 C   0  0  0  0  0  0  0  0  0  0  0  0
    2.9977   -2.3306   -0.2130 O   0  0  0  0  0  0  0  0  0  0  0  0
    1.8079   -0.2569   -0.0670 C   0  0  0  0  0  0  0  0  0  0  0  0
    2.8665    0.3979    0.3484 N   0  0  0  0  0  0  0  0  0  0  0  0
    2.4888    1.7013    0.4067 O   0  0  0  0  0  0  0  0  0  0  0  0
    1.2054    1.8315    0.0180 C   0  0  0  0  0  0  0  0  0  0  0  0
    0.6936    0.6102   -0.3005 C   0  0  0  0  0  0  0  0  0  0  0  0
   -0.7017    0.3090   -0.7608 C   0  0  0  0  0  0  0  0  0  0  0  0
   -1.6890    0.1297    0.4026 C   0  0  2  0  0  0  0  0  0  0  0  0
   -1.4023   -0.9811    1.3110 N   0  0  0  0  0  0  0  0  0  0  0  0
   -3.1195   -0.0131   -0.1512 C   0  0  0  0  0  0  0  0  0  0  0  0
   -3.5203    0.6336   -1.0871 O   0  0  0  0  0  0  0  0  0  0  0  0
   -3.8704   -0.8883    0.5139 O   0  0  0  0  0  0  0  0  0  0  0  0
    0.6453    3.2097    0.0105 C   0  0  0  0  0  0  0  0  0  0  0  0
    0.9800   -3.2807   -0.6028 H   0  0  0  0  0  0  0  0  0  0  0  0
   -1.0789    1.1174   -1.3941 H   0  0  0  0  0  0  0  0  0  0  0  0
   -0.7065   -0.5952   -1.3772 H   0  0  0  0  0  0  0  0  0  0  0  0
   -1.7007    1.0529    0.9977 H   0  0  0  0  0  0  0  0  0  0  0  0
   -0.8243   -0.6841    2.0893 H   0  0  0  0  0  0  0  0  0  0  0  0
   -0.8934   -1.7148    0.8231 H   0  0  0  0  0  0  0  0  0  0  0  0
   -3.2681   -1.2759    1.1914 H   0  0  0  0  0  0  0  0  0  0  0  0
    0.5729    3.6098    1.0270 H   0  0  0  0  0  0  0  0  0  0  0  0
   -0.3529    3.2081   -0.4345 H   0  0  0  0  0  0  0  0  0  0  0  0
    1.2852    3.8803   -0.5707 H   0  0  0  0  0  0  0  0  0  0  0  0
  1  2  1  0  0  0  0
  2  3  2  0  0  0  0
  2  4  1  0  0  0  0
  4  5  2  0  0  0  0
  5  6  1  0  0  0  0
  7  6  1  0  0  0  0
  8  4  1  0  0  0  0
  8  7  2  0  0  0  0
  9  8  1  0  0  0  0
  9 10  1  0  0  0  0
 10 19  1  1  0  0  0
 10 11  1  0  0  0  0
 11 20  1  0  0  0  0
 12 10  1  0  0  0  0
 12 14  1  0  0  0  0
 13 12  2  0  0  0  0
 14 22  1  0  0  0  0
 15  7  1  0  0  0  0
 15 23  1  0  0  0  0
 16  1  1  0  0  0  0
 17  9  1  0  0  0  0
 18  9  1  0  0  0  0
 21 11  1  0  0  0  0
 24 15  1  0  0  0  0
 25 15  1  0  0  0  0
M  END
