omegacsd_CEJTIU_07.log
 OpenBabel09261812563D

 41 42  0  0  0  0  0  0  0  0999 V2000
    6.5632   -2.0969    0.2379 C   0  0  0  0  0  0  0  0  0  0  0  0
    6.3281   -0.6692    0.1942 N   0  0  0  0  0  0  0  0  0  0  0  0
    7.3708    0.1545   -0.3793 C   0  0  0  0  0  0  0  0  0  0  0  0
    5.0115   -0.2233    0.0961 C   0  0  0  0  0  0  0  0  0  0  0  0
    3.9234   -1.0781    0.3378 C   0  0  0  0  0  0  0  0  0  0  0  0
    2.6076   -0.6368    0.2739 C   0  0  0  0  0  0  0  0  0  0  0  0
    2.3291    0.6910   -0.0468 C   0  0  0  0  0  0  0  0  0  0  0  0
    3.3975    1.5491   -0.3017 C   0  0  0  0  0  0  0  0  0  0  0  0
    4.7104    1.1081   -0.2385 C   0  0  0  0  0  0  0  0  0  0  0  0
    1.0222    1.2333   -0.1389 N   0  0  0  0  0  0  0  0  0  0  0  0
   -0.1679    0.5856    0.0544 C   0  0  0  0  0  0  0  0  0  0  0  0
   -0.2823   -0.5933    0.3357 O   0  0  0  0  0  0  0  0  0  0  0  0
   -1.2643    1.4428   -0.1060 N   0  0  0  0  0  0  0  0  0  0  0  0
   -2.6344    1.1665   -0.0349 C   0  0  0  0  0  0  0  0  0  0  0  0
   -3.3998    2.0978   -0.1674 O   0  0  0  0  0  0  0  0  0  0  0  0
   -3.0627   -0.2675    0.2116 C   0  0  0  0  0  0  0  0  0  0  0  0
   -4.5503   -0.4789    0.0788 C   0  0  0  0  0  0  0  0  0  0  0  0
   -5.0454   -1.3725   -0.8689 C   0  0  0  0  0  0  0  0  0  0  0  0
   -6.4135   -1.6072   -0.9836 C   0  0  0  0  0  0  0  0  0  0  0  0
   -7.3040   -0.9456   -0.1466 C   0  0  0  0  0  0  0  0  0  0  0  0
   -6.8190   -0.0496    0.8039 C   0  0  0  0  0  0  0  0  0  0  0  0
   -5.4535    0.1805    0.9157 C   0  0  0  0  0  0  0  0  0  0  0  0
    6.1042   -2.5392    1.1287 H   0  0  0  0  0  0  0  0  0  0  0  0
    7.6382   -2.2790    0.3032 H   0  0  0  0  0  0  0  0  0  0  0  0
    6.1732   -2.6250   -0.6473 H   0  0  0  0  0  0  0  0  0  0  0  0
    7.2250    0.3463   -1.4549 H   0  0  0  0  0  0  0  0  0  0  0  0
    7.4324    1.1205    0.1343 H   0  0  0  0  0  0  0  0  0  0  0  0
    8.3334   -0.3439   -0.2458 H   0  0  0  0  0  0  0  0  0  0  0  0
    4.0911   -2.1212    0.5822 H   0  0  0  0  0  0  0  0  0  0  0  0
    1.7965   -1.3261    0.4672 H   0  0  0  0  0  0  0  0  0  0  0  0
    3.2073    2.5902   -0.5609 H   0  0  0  0  0  0  0  0  0  0  0  0
    5.5008    1.8185   -0.4531 H   0  0  0  0  0  0  0  0  0  0  0  0
    0.9907    2.2054   -0.4066 H   0  0  0  0  0  0  0  0  0  0  0  0
   -1.1063    2.4290   -0.2690 H   0  0  0  0  0  0  0  0  0  0  0  0
   -2.5064   -0.9228   -0.4640 H   0  0  0  0  0  0  0  0  0  0  0  0
   -2.7055   -0.5457    1.2110 H   0  0  0  0  0  0  0  0  0  0  0  0
   -4.3518   -1.8952   -1.5251 H   0  0  0  0  0  0  0  0  0  0  0  0
   -6.7806   -2.3091   -1.7283 H   0  0  0  0  0  0  0  0  0  0  0  0
   -8.3727   -1.1248   -0.2335 H   0  0  0  0  0  0  0  0  0  0  0  0
   -7.5093    0.4743    1.4604 H   0  0  0  0  0  0  0  0  0  0  0  0
   -5.0827    0.8892    1.6518 H   0  0  0  0  0  0  0  0  0  0  0  0
  1 24  1  0  0  0  0
  1 23  1  0  0  0  0
  2  1  1  0  0  0  0
  3 28  1  0  0  0  0
  3 27  1  0  0  0  0
  3  2  1  0  0  0  0
  4  2  1  0  0  0  0
  4  5  2  0  0  0  0
  5 29  1  0  0  0  0
  6  5  1  0  0  0  0
  6 30  1  0  0  0  0
  7  6  2  0  0  0  0
  8  9  2  0  0  0  0
  8  7  1  0  0  0  0
  9  4  1  0  0  0  0
 10  7  1  0  0  0  0
 10 11  1  0  0  0  0
 11 12  2  0  0  0  0
 13 14  1  0  0  0  0
 13 11  1  0  0  0  0
 14 16  1  0  0  0  0
 15 14  2  0  0  0  0
 16 36  1  0  0  0  0
 17 16  1  0  0  0  0
 17 22  2  0  0  0  0
 18 17  1  0  0  0  0
 19 18  2  0  0  0  0
 19 20  1  0  0  0  0
 20 21  2  0  0  0  0
 21 22  1  0  0  0  0
 21 40  1  0  0  0  0
 22 41  1  0  0  0  0
 25  1  1  0  0  0  0
 26  3  1  0  0  0  0
 31  8  1  0  0  0  0
 32  9  1  0  0  0  0
 33 10  1  0  0  0  0
 34 13  1  0  0  0  0
 35 16  1  0  0  0  0
 37 18  1  0  0  0  0
 38 19  1  0  0  0  0
 39 20  1  0  0  0  0
M  END
