omegacsd_CUHNEY10_04.log
 OpenBabel09261812563D

 44 47  0  0  1  0  0  0  0  0999 V2000
    3.9607    3.1162   -0.5582 Cl  0  0  0  0  0  0  0  0  0  0  0  0
    2.3146    2.5974   -0.3926 C   0  0  0  0  0  0  0  0  0  0  0  0
    1.8868    1.4313   -1.0091 C   0  0  0  0  0  0  0  0  0  0  0  0
    0.6407    0.9770   -0.8973 N   0  0  0  0  0  0  0  0  0  0  0  0
   -0.2303    1.6734   -0.1701 C   0  0  0  0  0  0  0  0  0  0  0  0
   -1.5107    1.0992   -0.0873 N   0  0  0  0  0  0  0  0  0  0  0  0
   -2.6355    1.6700    0.5098 C   0  0  0  0  0  0  0  0  0  0  0  0
   -2.7122    2.7523    1.0435 O   0  0  0  0  0  0  0  0  0  0  0  0
   -3.7216    0.6562    0.3263 C   0  0  0  0  0  0  0  0  0  0  0  0
   -4.9835    0.7615    0.7233 N   0  0  0  0  0  0  0  0  0  0  0  0
   -5.7181   -0.3111    0.4276 C   0  0  0  0  0  0  0  0  0  0  0  0
   -5.1965   -1.4330   -0.2318 C   0  0  0  0  0  0  0  0  0  0  0  0
   -3.9240   -1.5217   -0.6244 N   0  0  0  0  0  0  0  0  0  0  0  0
   -3.2083   -0.4452   -0.3305 C   0  0  0  0  0  0  0  0  0  0  0  0
   -1.7472   -0.2399   -0.6344 C   0  0  2  0  0  0  0  0  0  0  0  0
   -0.9492   -1.1774    0.0489 O   0  0  0  0  0  0  0  0  0  0  0  0
   -0.1126   -1.9237   -0.7459 C   0  0  0  0  0  0  0  0  0  0  0  0
   -0.3124   -2.1140   -1.9261 O   0  0  0  0  0  0  0  0  0  0  0  0
    0.9099   -2.4221   -0.0078 N   0  0  0  0  0  0  0  0  0  0  0  0
    1.2334   -1.8766    1.3146 C   0  0  0  0  0  0  0  0  0  0  0  0
    2.5325   -2.5184    1.7995 C   0  0  0  0  0  0  0  0  0  0  0  0
    3.6612   -2.3325    0.8937 N   0  0  0  0  0  0  0  0  0  0  0  0
    3.2909   -2.4352   -0.5189 C   0  0  0  0  0  0  0  0  0  0  0  0
    1.9639   -3.1598   -0.6984 C   0  0  0  0  0  0  0  0  0  0  0  0
    4.4314   -1.1321    1.1490 C   0  0  0  0  0  0  0  0  0  0  0  0
    0.1011    2.8723    0.4764 C   0  0  0  0  0  0  0  0  0  0  0  0
    1.4016    3.3320    0.3573 C   0  0  0  0  0  0  0  0  0  0  0  0
    2.5708    0.8419   -1.6166 H   0  0  0  0  0  0  0  0  0  0  0  0
   -6.7642   -0.2888    0.7242 H   0  0  0  0  0  0  0  0  0  0  0  0
   -5.8361   -2.2859   -0.4472 H   0  0  0  0  0  0  0  0  0  0  0  0
   -1.5223   -0.2879   -1.7026 H   0  0  0  0  0  0  0  0  0  0  0  0
    0.4205   -2.0846    2.0179 H   0  0  0  0  0  0  0  0  0  0  0  0
    1.3462   -0.7857    1.2510 H   0  0  0  0  0  0  0  0  0  0  0  0
    2.3629   -3.5917    1.9560 H   0  0  0  0  0  0  0  0  0  0  0  0
    2.7953   -2.1004    2.7762 H   0  0  0  0  0  0  0  0  0  0  0  0
    3.1783   -1.4316   -0.9694 H   0  0  0  0  0  0  0  0  0  0  0  0
    4.0837   -2.9517   -1.0765 H   0  0  0  0  0  0  0  0  0  0  0  0
    1.6937   -3.2119   -1.7536 H   0  0  0  0  0  0  0  0  0  0  0  0
    2.0264   -4.1844   -0.3120 H   0  0  0  0  0  0  0  0  0  0  0  0
    4.7799   -1.1220    2.1868 H   0  0  0  0  0  0  0  0  0  0  0  0
    3.8717   -0.1947    0.9574 H   0  0  0  0  0  0  0  0  0  0  0  0
    5.3153   -1.1245    0.5015 H   0  0  0  0  0  0  0  0  0  0  0  0
   -0.6428    3.4127    1.0460 H   0  0  0  0  0  0  0  0  0  0  0  0
    1.7081    4.2527    0.8449 H   0  0  0  0  0  0  0  0  0  0  0  0
  1  2  1  0  0  0  0
  2 27  2  0  0  0  0
  3  4  2  0  0  0  0
  3  2  1  0  0  0  0
  4  5  1  0  0  0  0
  5  6  1  0  0  0  0
  5 26  2  0  0  0  0
  6  7  1  0  0  0  0
  7  8  2  0  0  0  0
  9  7  1  0  0  0  0
  9 10  2  0  0  0  0
 11 10  1  0  0  0  0
 11 29  1  0  0  0  0
 12 11  2  0  0  0  0
 13 14  2  0  0  0  0
 13 12  1  0  0  0  0
 14  9  1  0  0  0  0
 15 31  1  6  0  0  0
 15 14  1  0  0  0  0
 15  6  1  0  0  0  0
 15 16  1  0  0  0  0
 17 19  1  0  0  0  0
 17 16  1  0  0  0  0
 18 17  2  0  0  0  0
 19 20  1  0  0  0  0
 20 21  1  0  0  0  0
 20 32  1  0  0  0  0
 21 34  1  0  0  0  0
 21 35  1  0  0  0  0
 22 25  1  0  0  0  0
 22 21  1  0  0  0  0
 23 22  1  0  0  0  0
 24 23  1  0  0  0  0
 24 39  1  0  0  0  0
 24 19  1  0  0  0  0
 25 40  1  0  0  0  0
 26 43  1  0  0  0  0
 27 26  1  0  0  0  0
 27 44  1  0  0  0  0
 28  3  1  0  0  0  0
 30 12  1  0  0  0  0
 33 20  1  0  0  0  0
 36 23  1  0  0  0  0
 37 23  1  0  0  0  0
 38 24  1  0  0  0  0
 41 25  1  0  0  0  0
 42 25  1  0  0  0  0
M  END
