omegapdb_1xom_00.log
 OpenBabel09261812563D

 50 52  0  0  1  0  0  0  0  0999 V2000
    5.5561    2.1286   -0.7855 O   0  0  0  0  0  0  0  0  0  0  0  0
    5.2657    1.2333    0.1830 C   0  0  0  0  0  0  0  0  0  0  0  0
    6.1063    0.8098    0.9389 O   0  0  0  0  0  0  0  0  0  0  0  0
    3.7989    0.8625    0.1875 C   0  0  1  0  0  0  0  0  0  0  0  0
    3.3522    0.3314   -1.1848 C   0  0  0  0  0  0  0  0  0  0  0  0
    1.8693   -0.0391   -1.1709 C   0  0  0  0  0  0  0  0  0  0  0  0
    1.5125   -1.0556   -0.0551 C   0  0  2  0  0  0  0  0  0  0  0  0
    2.0112   -0.5173    1.3112 C   0  0  0  0  0  0  0  0  0  0  0  0
    3.4931   -0.1431    1.2976 C   0  0  0  0  0  0  0  0  0  0  0  0
    2.2518   -2.3032   -0.3414 C   0  0  0  0  0  0  0  0  0  0  0  0
    2.8630   -3.2594   -0.5678 N   0  0  0  0  0  0  0  0  0  0  0  0
    0.0069   -1.3358   -0.0259 C   0  0  0  0  0  0  0  0  0  0  0  0
   -0.5250   -2.5955   -0.2319 C   0  0  0  0  0  0  0  0  0  0  0  0
   -1.9107   -2.7990   -0.2050 C   0  0  0  0  0  0  0  0  0  0  0  0
   -2.7769   -1.7451    0.0267 C   0  0  0  0  0  0  0  0  0  0  0  0
   -4.1292   -1.8345    0.0709 O   0  0  0  0  0  0  0  0  0  0  0  0
   -4.6975   -3.1097   -0.1299 C   0  0  0  0  0  0  0  0  0  0  0  0
   -2.2452   -0.4497    0.2412 C   0  0  0  0  0  0  0  0  0  0  0  0
   -0.8729   -0.2642    0.2125 C   0  0  0  0  0  0  0  0  0  0  0  0
   -3.1633    0.5200    0.4698 O   0  0  0  0  0  0  0  0  0  0  0  0
   -2.7152    1.8569    0.6978 C   0  0  0  0  0  0  0  0  0  0  0  0
   -2.2357    2.5231   -0.6138 C   0  0  0  0  0  0  0  0  0  0  0  0
   -3.3984    3.4293   -1.0849 C   0  0  0  0  0  0  0  0  0  0  0  0
   -4.6030    3.0109   -0.2298 C   0  0  0  0  0  0  0  0  0  0  0  0
   -3.9574    2.6455    1.1082 C   0  0  0  0  0  0  0  0  0  0  0  0
    6.5095    2.3002   -0.7122 H   0  0  0  0  0  0  0  0  0  0  0  0
    3.2484    1.7970    0.3790 H   0  0  0  0  0  0  0  0  0  0  0  0
    3.9519   -0.5515   -1.4448 H   0  0  0  0  0  0  0  0  0  0  0  0
    3.5388    1.0844   -1.9566 H   0  0  0  0  0  0  0  0  0  0  0  0
    1.2686    0.8641   -1.0040 H   0  0  0  0  0  0  0  0  0  0  0  0
    1.5650   -0.4484   -2.1403 H   0  0  0  0  0  0  0  0  0  0  0  0
    1.4086    0.3662    1.5579 H   0  0  0  0  0  0  0  0  0  0  0  0
    1.8084   -1.2645    2.0860 H   0  0  0  0  0  0  0  0  0  0  0  0
    4.1097   -1.0381    1.1502 H   0  0  0  0  0  0  0  0  0  0  0  0
    3.7820    0.2713    2.2687 H   0  0  0  0  0  0  0  0  0  0  0  0
    0.1256   -3.4445   -0.4215 H   0  0  0  0  0  0  0  0  0  0  0  0
   -2.2963   -3.7995   -0.3700 H   0  0  0  0  0  0  0  0  0  0  0  0
   -4.3636   -3.8236    0.6345 H   0  0  0  0  0  0  0  0  0  0  0  0
   -5.7770   -2.9737   -0.0500 H   0  0  0  0  0  0  0  0  0  0  0  0
   -4.4536   -3.5071   -1.1240 H   0  0  0  0  0  0  0  0  0  0  0  0
   -0.4732    0.7323    0.3695 H   0  0  0  0  0  0  0  0  0  0  0  0
   -1.9493    1.8444    1.4843 H   0  0  0  0  0  0  0  0  0  0  0  0
   -1.3172    3.0986   -0.4501 H   0  0  0  0  0  0  0  0  0  0  0  0
   -2.0008    1.7501   -1.3521 H   0  0  0  0  0  0  0  0  0  0  0  0
   -3.5884    3.3366   -2.1585 H   0  0  0  0  0  0  0  0  0  0  0  0
   -3.1574    4.4813   -0.8901 H   0  0  0  0  0  0  0  0  0  0  0  0
   -5.3601    3.7968   -0.1452 H   0  0  0  0  0  0  0  0  0  0  0  0
   -5.0831    2.1221   -0.6545 H   0  0  0  0  0  0  0  0  0  0  0  0
   -3.6439    3.5551    1.6367 H   0  0  0  0  0  0  0  0  0  0  0  0
   -4.5954    2.0601    1.7757 H   0  0  0  0  0  0  0  0  0  0  0  0
  1 26  1  0  0  0  0
  1  2  1  0  0  0  0
  2  4  1  0  0  0  0
  2  3  2  0  0  0  0
  4 27  1  1  0  0  0
  4  9  1  0  0  0  0
  5  6  1  0  0  0  0
  5  4  1  0  0  0  0
  6 30  1  0  0  0  0
  6  7  1  0  0  0  0
  7 10  1  6  0  0  0
  7 12  1  0  0  0  0
  7  8  1  0  0  0  0
  8 32  1  0  0  0  0
  8 33  1  0  0  0  0
  9  8  1  0  0  0  0
  9 35  1  0  0  0  0
 11 10  3  0  0  0  0
 12 19  2  0  0  0  0
 13 14  2  0  0  0  0
 13 12  1  0  0  0  0
 14 15  1  0  0  0  0
 15 16  1  0  0  0  0
 15 18  2  0  0  0  0
 17 39  1  0  0  0  0
 17 16  1  0  0  0  0
 17 38  1  0  0  0  0
 18 20  1  0  0  0  0
 19 18  1  0  0  0  0
 19 41  1  0  0  0  0
 20 21  1  0  0  0  0
 21 25  1  0  0  0  0
 21 42  1  0  0  0  0
 22 43  1  0  0  0  0
 22 21  1  0  0  0  0
 23 46  1  0  0  0  0
 23 22  1  0  0  0  0
 23 24  1  0  0  0  0
 24 47  1  0  0  0  0
 24 25  1  0  0  0  0
 25 49  1  0  0  0  0
 25 50  1  0  0  0  0
 28  5  1  0  0  0  0
 29  5  1  0  0  0  0
 31  6  1  0  0  0  0
 34  9  1  0  0  0  0
 36 13  1  0  0  0  0
 37 14  1  0  0  0  0
 40 17  1  0  0  0  0
 44 22  1  0  0  0  0
 45 23  1  0  0  0  0
 48 24  1  0  0  0  0
M  END
