omegapdb_1gs5_18.log
 OpenBabel09261812563D

 24 23  0  0  1  0  0  0  0  0999 V2000
    0.4099    0.5099    0.0323 C   0  0  2  0  0  0  0  0  0  0  0  0
    0.3991    2.0217   -0.0829 C   0  0  0  0  0  0  0  0  0  0  0  0
    1.3627    2.7438   -0.0335 O   0  0  0  0  0  0  0  0  0  0  0  0
   -0.8551    2.4870   -0.2550 O   0  0  0  0  0  0  0  0  0  0  0  0
   -0.4968    0.0208    1.1993 C   0  0  0  0  0  0  0  0  0  0  0  0
   -1.3987   -1.1593    0.8359 C   0  0  0  0  0  0  0  0  0  0  0  0
   -2.5827   -0.9182   -0.0948 C   0  0  0  0  0  0  0  0  0  0  0  0
   -3.3276   -1.8119   -0.3986 O   0  0  0  0  0  0  0  0  0  0  0  0
   -2.7890    0.3214   -0.5899 O   0  0  0  0  0  0  0  0  0  0  0  0
    1.7912    0.1059    0.1535 N   0  0  0  0  0  0  0  0  0  0  0  0
    2.1859   -1.1544   -0.1859 C   0  0  0  0  0  0  0  0  0  0  0  0
    1.3812   -2.0273   -0.4730 O   0  0  0  0  0  0  0  0  0  0  0  0
    3.6799   -1.3942   -0.1918 C   0  0  0  0  0  0  0  0  0  0  0  0
    0.0074    0.1127   -0.9117 H   0  0  0  0  0  0  0  0  0  0  0  0
   -0.8082    3.4542   -0.3368 H   0  0  0  0  0  0  0  0  0  0  0  0
    0.1707   -0.2850    2.0103 H   0  0  0  0  0  0  0  0  0  0  0  0
   -1.0951    0.8496    1.5984 H   0  0  0  0  0  0  0  0  0  0  0  0
   -1.8244   -1.5946    1.7463 H   0  0  0  0  0  0  0  0  0  0  0  0
   -0.7944   -1.9434    0.3682 H   0  0  0  0  0  0  0  0  0  0  0  0
   -2.1668    0.9811   -0.2496 H   0  0  0  0  0  0  0  0  0  0  0  0
    2.4680    0.8505    0.2529 H   0  0  0  0  0  0  0  0  0  0  0  0
    4.2484   -0.5947    0.2913 H   0  0  0  0  0  0  0  0  0  0  0  0
    3.8834   -2.3414    0.3121 H   0  0  0  0  0  0  0  0  0  0  0  0
    4.0160   -1.4924   -1.2285 H   0  0  0  0  0  0  0  0  0  0  0  0
  1 14  1  6  0  0  0
  1 10  1  0  0  0  0
  1  5  1  0  0  0  0
  2  3  2  0  0  0  0
  2  1  1  0  0  0  0
  4  2  1  0  0  0  0
  5 17  1  0  0  0  0
  5 16  1  0  0  0  0
  6  5  1  0  0  0  0
  6 18  1  0  0  0  0
  7  6  1  0  0  0  0
  8  7  2  0  0  0  0
  9 20  1  0  0  0  0
  9  7  1  0  0  0  0
 10 21  1  0  0  0  0
 11 10  1  0  0  0  0
 12 11  2  0  0  0  0
 13 11  1  0  0  0  0
 13 22  1  0  0  0  0
 13 23  1  0  0  0  0
 15  4  1  0  0  0  0
 19  6  1  0  0  0  0
 24 13  1  0  0  0  0
M  END
