omegapdb_1xom_08.log
 OpenBabel09261812563D

 50 52  0  0  1  0  0  0  0  0999 V2000
   -5.9687    1.6597    0.6765 O   0  0  0  0  0  0  0  0  0  0  0  0
   -5.0699    1.4231   -0.3008 C   0  0  0  0  0  0  0  0  0  0  0  0
   -5.4004    1.2350   -1.4477 O   0  0  0  0  0  0  0  0  0  0  0  0
   -3.6550    1.4138    0.2376 C   0  0  1  0  0  0  0  0  0  0  0  0
   -3.5210    0.3306    1.3415 C   0  0  0  0  0  0  0  0  0  0  0  0
   -2.1107   -0.2515    1.3551 C   0  0  0  0  0  0  0  0  0  0  0  0
   -1.8163   -1.0423    0.0472 C   0  0  2  0  0  0  0  0  0  0  0  0
   -2.3883   -0.2628   -1.1858 C   0  0  0  0  0  0  0  0  0  0  0  0
   -2.6326    1.2176   -0.8919 C   0  0  0  0  0  0  0  0  0  0  0  0
   -2.5503   -2.3210    0.1423 C   0  0  0  0  0  0  0  0  0  0  0  0
   -3.1536   -3.3040    0.2400 N   0  0  0  0  0  0  0  0  0  0  0  0
   -0.3140   -1.3225   -0.0533 C   0  0  0  0  0  0  0  0  0  0  0  0
    0.2435   -2.5232    0.3656 C   0  0  0  0  0  0  0  0  0  0  0  0
    1.6231   -2.7351    0.3161 C   0  0  0  0  0  0  0  0  0  0  0  0
    2.4735   -1.7409   -0.1524 C   0  0  0  0  0  0  0  0  0  0  0  0
    3.8235   -1.8531   -0.2558 O   0  0  0  0  0  0  0  0  0  0  0  0
    4.4033   -3.0873    0.1114 C   0  0  0  0  0  0  0  0  0  0  0  0
    1.9201   -0.5129   -0.5668 C   0  0  0  0  0  0  0  0  0  0  0  0
    0.5508   -0.3216   -0.5135 C   0  0  0  0  0  0  0  0  0  0  0  0
    2.7140    0.4749   -1.0829 O   0  0  0  0  0  0  0  0  0  0  0  0
    3.5375    1.1568   -0.1373 C   0  0  0  0  0  0  0  0  0  0  0  0
    4.4983    2.0776   -0.8862 C   0  0  0  0  0  0  0  0  0  0  0  0
    4.8748    3.1790    0.1300 C   0  0  0  0  0  0  0  0  0  0  0  0
    3.8854    3.0215    1.3147 C   0  0  0  0  0  0  0  0  0  0  0  0
    2.7750    2.1062    0.7874 C   0  0  0  0  0  0  0  0  0  0  0  0
   -6.8428    1.6236    0.2538 H   0  0  0  0  0  0  0  0  0  0  0  0
   -3.4981    2.3969    0.6995 H   0  0  0  0  0  0  0  0  0  0  0  0
   -4.2364   -0.4844    1.1688 H   0  0  0  0  0  0  0  0  0  0  0  0
   -3.7760    0.7566    2.3159 H   0  0  0  0  0  0  0  0  0  0  0  0
   -1.3663    0.5488    1.4441 H   0  0  0  0  0  0  0  0  0  0  0  0
   -1.9656   -0.9143    2.2146 H   0  0  0  0  0  0  0  0  0  0  0  0
   -1.7071   -0.3830   -2.0336 H   0  0  0  0  0  0  0  0  0  0  0  0
   -3.3429   -0.7059   -1.4894 H   0  0  0  0  0  0  0  0  0  0  0  0
   -2.9985    1.7047   -1.8002 H   0  0  0  0  0  0  0  0  0  0  0  0
   -1.6958    1.7156   -0.6168 H   0  0  0  0  0  0  0  0  0  0  0  0
   -0.3957   -3.3261    0.7238 H   0  0  0  0  0  0  0  0  0  0  0  0
    2.0182   -3.6932    0.6373 H   0  0  0  0  0  0  0  0  0  0  0  0
    4.2237   -3.3164    1.1698 H   0  0  0  0  0  0  0  0  0  0  0  0
    4.0190   -3.9081   -0.5070 H   0  0  0  0  0  0  0  0  0  0  0  0
    5.4754   -2.9779   -0.0581 H   0  0  0  0  0  0  0  0  0  0  0  0
    0.1785    0.6391   -0.8594 H   0  0  0  0  0  0  0  0  0  0  0  0
    4.0939    0.4188    0.4552 H   0  0  0  0  0  0  0  0  0  0  0  0
    5.3613    1.5381   -1.2863 H   0  0  0  0  0  0  0  0  0  0  0  0
    3.9514    2.4981   -1.7380 H   0  0  0  0  0  0  0  0  0  0  0  0
    4.7914    4.1704   -0.3262 H   0  0  0  0  0  0  0  0  0  0  0  0
    5.9102    3.0776    0.4703 H   0  0  0  0  0  0  0  0  0  0  0  0
    4.3870    2.5400    2.1628 H   0  0  0  0  0  0  0  0  0  0  0  0
    3.5023    3.9807    1.6763 H   0  0  0  0  0  0  0  0  0  0  0  0
    2.2186    1.5921    1.5784 H   0  0  0  0  0  0  0  0  0  0  0  0
    2.0579    2.6734    0.1784 H   0  0  0  0  0  0  0  0  0  0  0  0
  2  4  1  0  0  0  0
  2  1  1  0  0  0  0
  3  2  2  0  0  0  0
  4 27  1  1  0  0  0
  4  5  1  0  0  0  0
  5  6  1  0  0  0  0
  5 29  1  0  0  0  0
  6 30  1  0  0  0  0
  6 31  1  0  0  0  0
  7 10  1  1  0  0  0
  7  6  1  0  0  0  0
  8  9  1  0  0  0  0
  8  7  1  0  0  0  0
  9 35  1  0  0  0  0
  9  4  1  0  0  0  0
 10 11  3  0  0  0  0
 12  7  1  0  0  0  0
 12 13  2  0  0  0  0
 13 36  1  0  0  0  0
 14 13  1  0  0  0  0
 14 37  1  0  0  0  0
 15 14  2  0  0  0  0
 16 15  1  0  0  0  0
 16 17  1  0  0  0  0
 17 38  1  0  0  0  0
 18 19  2  0  0  0  0
 18 15  1  0  0  0  0
 19 12  1  0  0  0  0
 20 18  1  0  0  0  0
 20 21  1  0  0  0  0
 21 42  1  0  0  0  0
 21 25  1  0  0  0  0
 22 21  1  0  0  0  0
 22 23  1  0  0  0  0
 23 46  1  0  0  0  0
 23 24  1  0  0  0  0
 24 48  1  0  0  0  0
 24 47  1  0  0  0  0
 25 24  1  0  0  0  0
 25 49  1  0  0  0  0
 26  1  1  0  0  0  0
 28  5  1  0  0  0  0
 32  8  1  0  0  0  0
 33  8  1  0  0  0  0
 34  9  1  0  0  0  0
 39 17  1  0  0  0  0
 40 17  1  0  0  0  0
 41 19  1  0  0  0  0
 43 22  1  0  0  0  0
 44 22  1  0  0  0  0
 45 23  1  0  0  0  0
 50 25  1  0  0  0  0
M  END
