omegacsd_CEJTIU_00.log
 OpenBabel09261812563D

 41 42  0  0  0  0  0  0  0  0999 V2000
    6.6003   -1.6682    0.1236 C   0  0  0  0  0  0  0  0  0  0  0  0
    6.0817   -0.3464   -0.1558 N   0  0  0  0  0  0  0  0  0  0  0  0
    6.9322    0.7766    0.1745 C   0  0  0  0  0  0  0  0  0  0  0  0
    4.6996   -0.1595   -0.1017 C   0  0  0  0  0  0  0  0  0  0  0  0
    4.1338    1.1265   -0.0593 C   0  0  0  0  0  0  0  0  0  0  0  0
    2.7591    1.3027   -0.0401 C   0  0  0  0  0  0  0  0  0  0  0  0
    1.8879    0.2139   -0.0531 C   0  0  0  0  0  0  0  0  0  0  0  0
    2.4312   -1.0697   -0.0809 C   0  0  0  0  0  0  0  0  0  0  0  0
    3.8096   -1.2457   -0.0997 C   0  0  0  0  0  0  0  0  0  0  0  0
    0.5022    0.4945   -0.0310 N   0  0  0  0  0  0  0  0  0  0  0  0
   -0.5095   -0.4017   -0.0265 C   0  0  0  0  0  0  0  0  0  0  0  0
   -0.4275   -1.6165   -0.0406 O   0  0  0  0  0  0  0  0  0  0  0  0
   -1.8104    0.1765   -0.0013 N   0  0  0  0  0  0  0  0  0  0  0  0
   -2.1854    1.4914    0.0192 C   0  0  0  0  0  0  0  0  0  0  0  0
   -1.3954    2.4261    0.0162 O   0  0  0  0  0  0  0  0  0  0  0  0
   -3.6870    1.7696    0.0512 C   0  0  0  0  0  0  0  0  0  0  0  0
   -4.6101    0.5764    0.0360 C   0  0  0  0  0  0  0  0  0  0  0  0
   -5.0789    0.0533   -1.1715 C   0  0  0  0  0  0  0  0  0  0  0  0
   -5.9106   -1.0621   -1.1869 C   0  0  0  0  0  0  0  0  0  0  0  0
   -6.2830   -1.6711    0.0079 C   0  0  0  0  0  0  0  0  0  0  0  0
   -5.8193   -1.1606    1.2169 C   0  0  0  0  0  0  0  0  0  0  0  0
   -4.9885   -0.0446    1.2290 C   0  0  0  0  0  0  0  0  0  0  0  0
    6.3195   -2.0406    1.1225 H   0  0  0  0  0  0  0  0  0  0  0  0
    6.2457   -2.3901   -0.6202 H   0  0  0  0  0  0  0  0  0  0  0  0
    7.6906   -1.6445    0.0577 H   0  0  0  0  0  0  0  0  0  0  0  0
    7.9769    0.4635    0.1126 H   0  0  0  0  0  0  0  0  0  0  0  0
    6.7484    1.1761    1.1855 H   0  0  0  0  0  0  0  0  0  0  0  0
    6.7957    1.5927   -0.5439 H   0  0  0  0  0  0  0  0  0  0  0  0
    4.7639    2.0089   -0.0420 H   0  0  0  0  0  0  0  0  0  0  0  0
    2.3558    2.3135   -0.0089 H   0  0  0  0  0  0  0  0  0  0  0  0
    1.7739   -1.9298   -0.0825 H   0  0  0  0  0  0  0  0  0  0  0  0
    4.1873   -2.2623   -0.1141 H   0  0  0  0  0  0  0  0  0  0  0  0
    0.2178    1.4715   -0.0174 H   0  0  0  0  0  0  0  0  0  0  0  0
   -2.5328   -0.5322    0.0017 H   0  0  0  0  0  0  0  0  0  0  0  0
   -3.8517    2.3800    0.9462 H   0  0  0  0  0  0  0  0  0  0  0  0
   -3.8817    2.4279   -0.8025 H   0  0  0  0  0  0  0  0  0  0  0  0
   -4.7917    0.5278   -2.1081 H   0  0  0  0  0  0  0  0  0  0  0  0
   -6.2697   -1.4553   -2.1344 H   0  0  0  0  0  0  0  0  0  0  0  0
   -6.9333   -2.5417   -0.0031 H   0  0  0  0  0  0  0  0  0  0  0  0
   -6.1060   -1.6308    2.1538 H   0  0  0  0  0  0  0  0  0  0  0  0
   -4.6299    0.3536    2.1767 H   0  0  0  0  0  0  0  0  0  0  0  0
  1 23  1  0  0  0  0
  2  4  1  0  0  0  0
  2  1  1  0  0  0  0
  2  3  1  0  0  0  0
  3 27  1  0  0  0  0
  4  9  2  0  0  0  0
  4  5  1  0  0  0  0
  5 29  1  0  0  0  0
  5  6  2  0  0  0  0
  6 30  1  0  0  0  0
  7  6  1  0  0  0  0
  7 10  1  0  0  0  0
  8  7  2  0  0  0  0
  9  8  1  0  0  0  0
 10 11  1  0  0  0  0
 10 33  1  0  0  0  0
 11 13  1  0  0  0  0
 12 11  2  0  0  0  0
 13 34  1  0  0  0  0
 13 14  1  0  0  0  0
 14 16  1  0  0  0  0
 15 14  2  0  0  0  0
 16 35  1  0  0  0  0
 17 16  1  0  0  0  0
 17 22  2  0  0  0  0
 18 17  1  0  0  0  0
 19 18  2  0  0  0  0
 19 20  1  0  0  0  0
 20 21  2  0  0  0  0
 21 22  1  0  0  0  0
 21 40  1  0  0  0  0
 22 41  1  0  0  0  0
 24  1  1  0  0  0  0
 25  1  1  0  0  0  0
 26  3  1  0  0  0  0
 28  3  1  0  0  0  0
 31  8  1  0  0  0  0
 32  9  1  0  0  0  0
 36 16  1  0  0  0  0
 37 18  1  0  0  0  0
 38 19  1  0  0  0  0
 39 20  1  0  0  0  0
M  END
