omegapdb_1gs5_08.log
 OpenBabel09261812563D

 24 23  0  0  1  0  0  0  0  0999 V2000
    0.9993   -0.4254    0.3082 C   0  0  2  0  0  0  0  0  0  0  0  0
    2.1924   -1.3006   -0.0357 C   0  0  0  0  0  0  0  0  0  0  0  0
    3.2170   -0.9027   -0.5395 O   0  0  0  0  0  0  0  0  0  0  0  0
    1.9839   -2.5776    0.3026 O   0  0  0  0  0  0  0  0  0  0  0  0
   -0.3070   -0.9115   -0.3718 C   0  0  0  0  0  0  0  0  0  0  0  0
   -1.5011   -1.0285    0.5973 C   0  0  0  0  0  0  0  0  0  0  0  0
   -2.7997   -0.6051   -0.0730 C   0  0  0  0  0  0  0  0  0  0  0  0
   -3.6824   -1.3674   -0.3739 O   0  0  0  0  0  0  0  0  0  0  0  0
   -2.8869    0.7075   -0.3446 O   0  0  0  0  0  0  0  0  0  0  0  0
    1.3746    0.9280   -0.0509 N   0  0  0  0  0  0  0  0  0  0  0  0
    0.5762    1.9921    0.1670 C   0  0  0  0  0  0  0  0  0  0  0  0
   -0.5478    1.8797    0.6597 O   0  0  0  0  0  0  0  0  0  0  0  0
    1.1329    3.3412   -0.2217 C   0  0  0  0  0  0  0  0  0  0  0  0
    0.8716   -0.4930    1.3979 H   0  0  0  0  0  0  0  0  0  0  0  0
    2.7855   -3.0694    0.0575 H   0  0  0  0  0  0  0  0  0  0  0  0
   -0.1410   -1.8817   -0.8484 H   0  0  0  0  0  0  0  0  0  0  0  0
   -0.5352   -0.2050   -1.1754 H   0  0  0  0  0  0  0  0  0  0  0  0
   -1.6234   -2.0544    0.9499 H   0  0  0  0  0  0  0  0  0  0  0  0
   -1.3378   -0.3779    1.4629 H   0  0  0  0  0  0  0  0  0  0  0  0
   -2.1143    1.1844    0.0230 H   0  0  0  0  0  0  0  0  0  0  0  0
    2.3013    1.0382   -0.4425 H   0  0  0  0  0  0  0  0  0  0  0  0
    1.1634    3.9744    0.6691 H   0  0  0  0  0  0  0  0  0  0  0  0
    0.4478    3.8094   -0.9333 H   0  0  0  0  0  0  0  0  0  0  0  0
    2.1319    3.2894   -0.6621 H   0  0  0  0  0  0  0  0  0  0  0  0
  1 14  1  1  0  0  0
  2  4  1  0  0  0  0
  2  1  1  0  0  0  0
  3  2  2  0  0  0  0
  5  1  1  0  0  0  0
  5  6  1  0  0  0  0
  6 18  1  0  0  0  0
  6 19  1  0  0  0  0
  7  6  1  0  0  0  0
  8  7  2  0  0  0  0
  9  7  1  0  0  0  0
  9 20  1  0  0  0  0
 10 11  1  0  0  0  0
 10  1  1  0  0  0  0
 11 12  2  0  0  0  0
 13 11  1  0  0  0  0
 13 22  1  0  0  0  0
 15  4  1  0  0  0  0
 16  5  1  0  0  0  0
 17  5  1  0  0  0  0
 21 10  1  0  0  0  0
 23 13  1  0  0  0  0
 24 13  1  0  0  0  0
M  END
