omegacsd_CEJTIU_04.log
 OpenBabel09261812563D

 41 42  0  0  0  0  0  0  0  0999 V2000
    6.7796    0.4486   -1.0847 C   0  0  0  0  0  0  0  0  0  0  0  0
    6.1002   -0.2051    0.0220 N   0  0  0  0  0  0  0  0  0  0  0  0
    6.6396   -1.5221    0.2807 C   0  0  0  0  0  0  0  0  0  0  0  0
    4.6924   -0.0796    0.0452 C   0  0  0  0  0  0  0  0  0  0  0  0
    3.8333   -1.1758    0.1562 C   0  0  0  0  0  0  0  0  0  0  0  0
    2.4489   -1.0230    0.2189 C   0  0  0  0  0  0  0  0  0  0  0  0
    1.8854    0.2477    0.1543 C   0  0  0  0  0  0  0  0  0  0  0  0
    2.7343    1.3542    0.0424 C   0  0  0  0  0  0  0  0  0  0  0  0
    4.1067    1.1952   -0.0030 C   0  0  0  0  0  0  0  0  0  0  0  0
    0.4981    0.5083    0.2037 N   0  0  0  0  0  0  0  0  0  0  0  0
   -0.4989   -0.4036    0.2785 C   0  0  0  0  0  0  0  0  0  0  0  0
   -0.3946   -1.6156    0.3188 O   0  0  0  0  0  0  0  0  0  0  0  0
   -1.8070    0.1543    0.3139 N   0  0  0  0  0  0  0  0  0  0  0  0
   -2.2053    1.4634    0.2805 C   0  0  0  0  0  0  0  0  0  0  0  0
   -1.4320    2.4087    0.2101 O   0  0  0  0  0  0  0  0  0  0  0  0
   -3.7088    1.7077    0.3860 C   0  0  0  0  0  0  0  0  0  0  0  0
   -4.6067    0.5418    0.0514 C   0  0  0  0  0  0  0  0  0  0  0  0
   -4.9452    0.2697   -1.2768 C   0  0  0  0  0  0  0  0  0  0  0  0
   -5.7461   -0.8210   -1.5955 C   0  0  0  0  0  0  0  0  0  0  0  0
   -6.2183   -1.6589   -0.5881 C   0  0  0  0  0  0  0  0  0  0  0  0
   -5.8867   -1.3988    0.7373 C   0  0  0  0  0  0  0  0  0  0  0  0
   -5.0860   -0.3041    1.0537 C   0  0  0  0  0  0  0  0  0  0  0  0
    6.4120    1.4670   -1.2213 H   0  0  0  0  0  0  0  0  0  0  0  0
    6.6472   -0.0938   -2.0374 H   0  0  0  0  0  0  0  0  0  0  0  0
    7.8516    0.5061   -0.8679 H   0  0  0  0  0  0  0  0  0  0  0  0
    6.2270   -1.9223    1.2114 H   0  0  0  0  0  0  0  0  0  0  0  0
    7.7247   -1.4395    0.3999 H   0  0  0  0  0  0  0  0  0  0  0  0
    6.4409   -2.2456   -0.5308 H   0  0  0  0  0  0  0  0  0  0  0  0
    4.2332   -2.1841    0.1909 H   0  0  0  0  0  0  0  0  0  0  0  0
    1.8077   -1.8908    0.3049 H   0  0  0  0  0  0  0  0  0  0  0  0
    2.3097    2.3559    0.0051 H   0  0  0  0  0  0  0  0  0  0  0  0
    4.7383    2.0781   -0.0506 H   0  0  0  0  0  0  0  0  0  0  0  0
    0.1971    1.4802    0.1773 H   0  0  0  0  0  0  0  0  0  0  0  0
   -2.5180   -0.5654    0.3484 H   0  0  0  0  0  0  0  0  0  0  0  0
   -3.8848    2.0481    1.4139 H   0  0  0  0  0  0  0  0  0  0  0  0
   -3.9123    2.5668   -0.2602 H   0  0  0  0  0  0  0  0  0  0  0  0
   -4.5776    0.9219   -2.0669 H   0  0  0  0  0  0  0  0  0  0  0  0
   -6.0016   -1.0181   -2.6333 H   0  0  0  0  0  0  0  0  0  0  0  0
   -6.8437   -2.5121   -0.8370 H   0  0  0  0  0  0  0  0  0  0  0  0
   -6.2529   -2.0469    1.5292 H   0  0  0  0  0  0  0  0  0  0  0  0
   -4.8352   -0.1008    2.0936 H   0  0  0  0  0  0  0  0  0  0  0  0
  1 25  1  0  0  0  0
  1  2  1  0  0  0  0
  2  4  1  0  0  0  0
  2  3  1  0  0  0  0
  3 27  1  0  0  0  0
  3 26  1  0  0  0  0
  4  5  2  0  0  0  0
  5 29  1  0  0  0  0
  5  6  1  0  0  0  0
  6 30  1  0  0  0  0
  7 10  1  0  0  0  0
  7  6  2  0  0  0  0
  8  7  1  0  0  0  0
  9  8  2  0  0  0  0
  9  4  1  0  0  0  0
 10 11  1  0  0  0  0
 11 13  1  0  0  0  0
 11 12  2  0  0  0  0
 13 34  1  0  0  0  0
 14 13  1  0  0  0  0
 14 16  1  0  0  0  0
 15 14  2  0  0  0  0
 16 35  1  0  0  0  0
 17 16  1  0  0  0  0
 17 22  2  0  0  0  0
 18 17  1  0  0  0  0
 19 18  2  0  0  0  0
 19 20  1  0  0  0  0
 20 21  2  0  0  0  0
 21 22  1  0  0  0  0
 21 40  1  0  0  0  0
 22 41  1  0  0  0  0
 23  1  1  0  0  0  0
 24  1  1  0  0  0  0
 28  3  1  0  0  0  0
 31  8  1  0  0  0  0
 32  9  1  0  0  0  0
 33 10  1  0  0  0  0
 36 16  1  0  0  0  0
 37 18  1  0  0  0  0
 38 19  1  0  0  0  0
 39 20  1  0  0  0  0
M  END
