omegapdb_1qxw_18.log
 OpenBabel09261812563D

 36 36  0  0  1  0  0  0  0  0999 V2000
   -4.8100    0.5340    0.0060 C   0  0  0  0  0  0  0  0  0  0  0  0
   -4.3946   -0.8822    0.2903 C   0  0  0  0  0  0  0  0  0  0  0  0
   -3.3644    0.2112    0.2364 C   0  0  0  0  0  0  0  0  0  0  0  0
   -2.5023    0.2345   -0.9128 N   0  0  0  0  0  0  0  0  0  0  0  0
   -1.4258   -0.7357   -0.9178 C   0  0  0  0  0  0  0  0  0  0  0  0
   -0.2189   -0.5079    0.0133 C   0  0  0  0  0  0  0  0  0  0  0  0
    0.6183    0.7420   -0.3398 C   0  0  1  0  0  0  0  0  0  0  0  0
   -0.2175    1.9257   -0.1216 N   0  0  0  0  0  0  0  0  0  0  0  0
    1.9704    0.7826    0.4072 C   0  0  0  0  0  0  0  0  0  0  0  0
    3.1351    0.1156   -0.3299 C   0  0  0  0  0  0  0  0  0  0  0  0
    4.4427    0.1586    0.4592 C   0  0  0  0  0  0  0  0  0  0  0  0
    5.6044   -0.4906   -0.2885 C   0  0  0  0  0  0  0  0  0  0  0  0
    0.5426   -1.6893   -0.1230 O   0  0  0  0  0  0  0  0  0  0  0  0
   -0.6004   -0.3451    1.3653 O   0  0  0  0  0  0  0  0  0  0  0  0
   -5.3473    1.0809    0.7759 H   0  0  0  0  0  0  0  0  0  0  0  0
   -5.0909    0.7714   -1.0153 H   0  0  0  0  0  0  0  0  0  0  0  0
   -4.4086   -1.5792   -0.5430 H   0  0  0  0  0  0  0  0  0  0  0  0
   -4.6491   -1.3147    1.2542 H   0  0  0  0  0  0  0  0  0  0  0  0
   -2.9515    0.5342    1.1956 H   0  0  0  0  0  0  0  0  0  0  0  0
   -2.1029    1.1645   -1.0165 H   0  0  0  0  0  0  0  0  0  0  0  0
   -1.0275   -0.8249   -1.9363 H   0  0  0  0  0  0  0  0  0  0  0  0
   -1.8387   -1.7207   -0.6612 H   0  0  0  0  0  0  0  0  0  0  0  0
    0.8220    0.6792   -1.4176 H   0  0  0  0  0  0  0  0  0  0  0  0
    0.3212    2.7644   -0.3194 H   0  0  0  0  0  0  0  0  0  0  0  0
   -0.4734    1.9592    0.8627 H   0  0  0  0  0  0  0  0  0  0  0  0
    1.8490    0.3550    1.4139 H   0  0  0  0  0  0  0  0  0  0  0  0
    2.2308    1.8376    0.5713 H   0  0  0  0  0  0  0  0  0  0  0  0
    3.2791    0.6214   -1.2960 H   0  0  0  0  0  0  0  0  0  0  0  0
    2.8863   -0.9241   -0.5780 H   0  0  0  0  0  0  0  0  0  0  0  0
    4.3004   -0.3430    1.4268 H   0  0  0  0  0  0  0  0  0  0  0  0
    4.6902    1.2036    0.6925 H   0  0  0  0  0  0  0  0  0  0  0  0
    5.7846    0.0116   -1.2463 H   0  0  0  0  0  0  0  0  0  0  0  0
    6.5319   -0.4463    0.2920 H   0  0  0  0  0  0  0  0  0  0  0  0
    5.3936   -1.5449   -0.5032 H   0  0  0  0  0  0  0  0  0  0  0  0
    1.2140   -1.6658    0.5728 H   0  0  0  0  0  0  0  0  0  0  0  0
   -1.2556   -1.0300    1.5599 H   0  0  0  0  0  0  0  0  0  0  0  0
  1  3  1  0  0  0  0
  1  2  1  0  0  0  0
  1 15  1  0  0  0  0
  2 18  1  0  0  0  0
  3  2  1  0  0  0  0
  3 19  1  0  0  0  0
  4  3  1  0  0  0  0
  5  4  1  0  0  0  0
  5 22  1  0  0  0  0
  5  6  1  0  0  0  0
  6 14  1  0  0  0  0
  7 23  1  6  0  0  0
  7  8  1  0  0  0  0
  7  6  1  0  0  0  0
  7  9  1  0  0  0  0
  8 25  1  0  0  0  0
  9 27  1  0  0  0  0
  9 26  1  0  0  0  0
 10  9  1  0  0  0  0
 10 11  1  0  0  0  0
 11 31  1  0  0  0  0
 11 30  1  0  0  0  0
 12 33  1  0  0  0  0
 12 11  1  0  0  0  0
 13  6  1  0  0  0  0
 13 35  1  0  0  0  0
 14 36  1  0  0  0  0
 16  1  1  0  0  0  0
 17  2  1  0  0  0  0
 20  4  1  0  0  0  0
 21  5  1  0  0  0  0
 24  8  1  0  0  0  0
 28 10  1  0  0  0  0
 29 10  1  0  0  0  0
 32 12  1  0  0  0  0
 34 12  1  0  0  0  0
M  END
