omegapdb_1z1r_00.log
 OpenBabel09261812563D

 66 68  0  0  1  0  0  0  0  0999 V2000
    0.2796    0.7817    1.4300 C   0  0  2  0  0  0  0  0  0  0  0  0
    0.3810    2.2234    0.8980 C   0  0  0  0  0  0  0  0  0  0  0  0
    1.8054    2.5194    0.4872 C   0  0  0  0  0  0  0  0  0  0  0  0
    2.8127    2.6036    1.4514 C   0  0  0  0  0  0  0  0  0  0  0  0
    4.1523    2.6276    1.0871 C   0  0  0  0  0  0  0  0  0  0  0  0
    4.5056    2.5721   -0.2599 C   0  0  0  0  0  0  0  0  0  0  0  0
    3.5130    2.5924   -1.2375 C   0  0  0  0  0  0  0  0  0  0  0  0
    2.1746    2.5529   -0.8579 C   0  0  0  0  0  0  0  0  0  0  0  0
    5.8361    2.4941   -0.5732 O   0  0  0  0  0  0  0  0  0  0  0  0
    6.2408    1.3360   -1.3079 C   0  0  0  0  0  0  0  0  0  0  0  0
    6.0619    0.0150   -0.5565 C   0  0  0  0  0  0  0  0  0  0  0  0
    4.6604   -0.5914   -0.6339 C   0  0  0  0  0  0  0  0  0  0  0  0
    4.5910   -1.9551    0.0391 C   0  0  0  0  0  0  0  0  0  0  0  0
    5.5481   -2.4605    0.5956 O   0  0  0  0  0  0  0  0  0  0  0  0
    3.3831   -2.6201   -0.0230 N   0  0  0  0  0  0  0  0  0  0  0  0
    2.1245   -2.0247   -0.4045 C   0  0  2  0  0  0  0  0  0  0  0  0
    1.4734   -1.2792    0.7720 C   0  0  0  0  0  0  0  0  0  0  0  0
    1.5130   -1.7354    1.9152 O   0  0  0  0  0  0  0  0  0  0  0  0
    0.8514   -0.1295    0.4490 N   0  0  0  0  0  0  0  0  0  0  0  0
    1.1481   -3.0875   -0.9211 C   0  0  0  0  0  0  0  0  0  0  0  0
   -0.1144   -2.4129   -1.4548 C   0  0  0  0  0  0  0  0  0  0  0  0
   -0.0525   -1.3199   -2.0153 O   0  0  0  0  0  0  0  0  0  0  0  0
   -1.2724   -3.0704   -1.2616 N   0  0  0  0  0  0  0  0  0  0  0  0
   -1.1306    0.3575    1.8621 C   0  0  2  0  0  0  0  0  0  0  0  0
   -1.0978   -0.8701    2.5654 O   0  0  0  0  0  0  0  0  0  0  0  0
   -2.0969    0.2182    0.6782 C   0  0  0  0  0  0  0  0  0  0  0  0
   -3.3010   -0.4454    1.1765 N   0  0  0  0  0  0  0  0  0  0  0  0
   -4.3926   -1.0235    0.0742 S   0  0  0  0  0  0  0  0  0  0  0  0
   -5.2316   -1.9580    0.8052 O   0  0  0  0  0  0  0  0  0  0  0  0
   -3.7282   -1.4541   -1.1598 O   0  0  0  0  0  0  0  0  0  0  0  0
   -5.3254    0.4267   -0.3415 C   0  0  0  0  0  0  0  0  0  0  0  0
   -6.2529    0.9096    0.5786 C   0  0  0  0  0  0  0  0  0  0  0  0
   -6.9848    2.0454    0.2586 C   0  0  0  0  0  0  0  0  0  0  0  0
   -6.7857    2.6822   -0.9661 C   0  0  0  0  0  0  0  0  0  0  0  0
   -5.8593    2.1853   -1.8773 C   0  0  0  0  0  0  0  0  0  0  0  0
   -5.1209    1.0457   -1.5689 C   0  0  0  0  0  0  0  0  0  0  0  0
    0.9124    0.7019    2.3229 H   0  0  0  0  0  0  0  0  0  0  0  0
    0.0382    2.9064    1.6844 H   0  0  0  0  0  0  0  0  0  0  0  0
   -0.2927    2.3580    0.0414 H   0  0  0  0  0  0  0  0  0  0  0  0
    2.5499    2.6023    2.5083 H   0  0  0  0  0  0  0  0  0  0  0  0
    4.9414    2.6443    1.8332 H   0  0  0  0  0  0  0  0  0  0  0  0
    3.7866    2.5986   -2.2893 H   0  0  0  0  0  0  0  0  0  0  0  0
    1.4047    2.5207   -1.6278 H   0  0  0  0  0  0  0  0  0  0  0  0
    5.7281    1.3036   -2.2808 H   0  0  0  0  0  0  0  0  0  0  0  0
    7.3026    1.5093   -1.5004 H   0  0  0  0  0  0  0  0  0  0  0  0
    6.3525    0.1580    0.4899 H   0  0  0  0  0  0  0  0  0  0  0  0
    6.7728   -0.7113   -0.9667 H   0  0  0  0  0  0  0  0  0  0  0  0
    3.9183    0.0622   -0.1602 H   0  0  0  0  0  0  0  0  0  0  0  0
    4.3504   -0.6902   -1.6839 H   0  0  0  0  0  0  0  0  0  0  0  0
    3.3360   -3.3912    0.6321 H   0  0  0  0  0  0  0  0  0  0  0  0
    2.2966   -1.3257   -1.2251 H   0  0  0  0  0  0  0  0  0  0  0  0
    0.7314    0.0647   -0.5389 H   0  0  0  0  0  0  0  0  0  0  0  0
    1.6307   -3.6390   -1.7359 H   0  0  0  0  0  0  0  0  0  0  0  0
    0.9123   -3.8020   -0.1233 H   0  0  0  0  0  0  0  0  0  0  0  0
   -1.3080   -3.9210   -0.7230 H   0  0  0  0  0  0  0  0  0  0  0  0
   -2.1501   -2.5981   -1.4703 H   0  0  0  0  0  0  0  0  0  0  0  0
   -1.5247    1.1245    2.5453 H   0  0  0  0  0  0  0  0  0  0  0  0
   -0.1972   -1.2476    2.5327 H   0  0  0  0  0  0  0  0  0  0  0  0
   -2.3725    1.2073    0.2916 H   0  0  0  0  0  0  0  0  0  0  0  0
   -1.6301   -0.3528   -0.1351 H   0  0  0  0  0  0  0  0  0  0  0  0
   -3.0617   -1.1844    1.8394 H   0  0  0  0  0  0  0  0  0  0  0  0
   -6.3981    0.3929    1.5230 H   0  0  0  0  0  0  0  0  0  0  0  0
   -7.7152    2.4332    0.9630 H   0  0  0  0  0  0  0  0  0  0  0  0
   -7.3618    3.5705   -1.2118 H   0  0  0  0  0  0  0  0  0  0  0  0
   -5.7136    2.6799   -2.8335 H   0  0  0  0  0  0  0  0  0  0  0  0
   -4.4029    0.6268   -2.2675 H   0  0  0  0  0  0  0  0  0  0  0  0
  1 24  1  0  0  0  0
  1 37  1  1  0  0  0
  2  1  1  0  0  0  0
  2 38  1  0  0  0  0
  3  2  1  0  0  0  0
  3  4  2  0  0  0  0
  4 40  1  0  0  0  0
  5  4  1  0  0  0  0
  5 41  1  0  0  0  0
  6  5  2  0  0  0  0
  7  8  2  0  0  0  0
  7  6  1  0  0  0  0
  8  3  1  0  0  0  0
  9  6  1  0  0  0  0
 10  9  1  0  0  0  0
 10 11  1  0  0  0  0
 11 46  1  0  0  0  0
 12 11  1  0  0  0  0
 12 48  1  0  0  0  0
 12 13  1  0  0  0  0
 13 14  2  0  0  0  0
 15 13  1  0  0  0  0
 15 50  1  0  0  0  0
 16 51  1  6  0  0  0
 16 15  1  0  0  0  0
 16 17  1  0  0  0  0
 17 18  2  0  0  0  0
 19 17  1  0  0  0  0
 19  1  1  0  0  0  0
 20 16  1  0  0  0  0
 20 54  1  0  0  0  0
 21 23  1  0  0  0  0
 21 20  1  0  0  0  0
 22 21  2  0  0  0  0
 23 55  1  0  0  0  0
 24 57  1  1  0  0  0
 24 25  1  0  0  0  0
 26 27  1  0  0  0  0
 26 24  1  0  0  0  0
 27 61  1  0  0  0  0
 28 29  2  0  0  0  0
 28 27  1  0  0  0  0
 30 28  2  0  0  0  0
 31 28  1  0  0  0  0
 31 32  2  0  0  0  0
 32 62  1  0  0  0  0
 33 32  1  0  0  0  0
 33 63  1  0  0  0  0
 34 33  2  0  0  0  0
 35 36  2  0  0  0  0
 35 34  1  0  0  0  0
 36 31  1  0  0  0  0
 39  2  1  0  0  0  0
 42  7  1  0  0  0  0
 43  8  1  0  0  0  0
 44 10  1  0  0  0  0
 45 10  1  0  0  0  0
 47 11  1  0  0  0  0
 49 12  1  0  0  0  0
 52 19  1  0  0  0  0
 53 20  1  0  0  0  0
 56 23  1  0  0  0  0
 58 25  1  0  0  0  0
 59 26  1  0  0  0  0
 60 26  1  0  0  0  0
 64 34  1  0  0  0  0
 65 35  1  0  0  0  0
 66 36  1  0  0  0  0
M  END
