omegacsd_CDBMPI10_09.log
 OpenBabel09261812563D

 46 48  0  0  1  0  0  0  0  0999 V2000
   -3.0112    2.1380   -0.2930 O   0  0  0  0  0  0  0  0  0  0  0  0
   -2.5933    1.0392    0.0462 C   0  0  0  0  0  0  0  0  0  0  0  0
   -1.3238    0.8610    0.5550 N   0  0  0  0  0  0  0  0  0  0  0  0
   -0.5598   -0.3807    0.3692 C   0  0  1  0  0  0  0  0  0  0  0  0
    0.4621   -0.1919   -0.7722 C   0  0  0  0  0  0  0  0  0  0  0  0
    1.3011    0.9869   -0.5554 N   0  0  0  0  0  0  0  0  0  0  0  0
    0.4683    2.2027   -0.4659 C   0  0  1  0  0  0  0  0  0  0  0  0
   -0.5043    2.0655    0.7060 C   0  0  0  0  0  0  0  0  0  0  0  0
    1.2423    3.5144   -0.4587 C   0  0  0  0  0  0  0  0  0  0  0  0
    2.4424    0.8717    0.2185 C   0  0  0  0  0  0  0  0  0  0  0  0
    2.7585    1.6844    1.0753 O   0  0  0  0  0  0  0  0  0  0  0  0
    3.3479   -0.2952   -0.0731 C   0  0  0  0  0  0  0  0  0  0  0  0
    3.5502   -0.7794   -1.3668 C   0  0  0  0  0  0  0  0  0  0  0  0
    4.4563   -1.8103   -1.5926 C   0  0  0  0  0  0  0  0  0  0  0  0
    5.1581   -2.3669   -0.5264 C   0  0  0  0  0  0  0  0  0  0  0  0
    4.9656   -1.8798    0.7641 C   0  0  0  0  0  0  0  0  0  0  0  0
    4.0718   -0.8392    0.9878 C   0  0  0  0  0  0  0  0  0  0  0  0
    0.1013   -0.8353    1.6708 C   0  0  0  0  0  0  0  0  0  0  0  0
   -3.5086   -0.1540   -0.0283 C   0  0  0  0  0  0  0  0  0  0  0  0
   -4.3938   -0.2210   -1.1046 C   0  0  0  0  0  0  0  0  0  0  0  0
   -5.3124   -1.2599   -1.1932 C   0  0  0  0  0  0  0  0  0  0  0  0
   -5.3713   -2.2254   -0.1912 C   0  0  0  0  0  0  0  0  0  0  0  0
   -4.5106   -2.1477    0.9000 C   0  0  0  0  0  0  0  0  0  0  0  0
   -3.5798   -1.1169    0.9801 C   0  0  0  0  0  0  0  0  0  0  0  0
   -1.2570   -1.1553    0.0418 H   0  0  0  0  0  0  0  0  0  0  0  0
    1.0807   -1.0873   -0.8556 H   0  0  0  0  0  0  0  0  0  0  0  0
   -0.0755   -0.0611   -1.7199 H   0  0  0  0  0  0  0  0  0  0  0  0
   -0.1376    2.1843   -1.3828 H   0  0  0  0  0  0  0  0  0  0  0  0
    0.0596    2.0109    1.6438 H   0  0  0  0  0  0  0  0  0  0  0  0
   -1.1792    2.9208    0.7456 H   0  0  0  0  0  0  0  0  0  0  0  0
    1.7247    3.7020    0.5004 H   0  0  0  0  0  0  0  0  0  0  0  0
    0.5451    4.3296   -0.6794 H   0  0  0  0  0  0  0  0  0  0  0  0
    2.0134    3.5067   -1.2357 H   0  0  0  0  0  0  0  0  0  0  0  0
    3.0094   -0.3317   -2.1974 H   0  0  0  0  0  0  0  0  0  0  0  0
    4.6189   -2.1764   -2.6030 H   0  0  0  0  0  0  0  0  0  0  0  0
    5.8636   -3.1747   -0.7033 H   0  0  0  0  0  0  0  0  0  0  0  0
    5.5196   -2.3067    1.5961 H   0  0  0  0  0  0  0  0  0  0  0  0
    3.9302   -0.4250    1.9823 H   0  0  0  0  0  0  0  0  0  0  0  0
    0.6439   -1.7740    1.5134 H   0  0  0  0  0  0  0  0  0  0  0  0
   -0.6545   -1.0002    2.4453 H   0  0  0  0  0  0  0  0  0  0  0  0
    0.8139   -0.0972    2.0528 H   0  0  0  0  0  0  0  0  0  0  0  0
   -4.3575    0.5592   -1.8594 H   0  0  0  0  0  0  0  0  0  0  0  0
   -5.9928   -1.3107   -2.0393 H   0  0  0  0  0  0  0  0  0  0  0  0
   -6.0964   -3.0328   -0.2551 H   0  0  0  0  0  0  0  0  0  0  0  0
   -4.5673   -2.8879    1.6939 H   0  0  0  0  0  0  0  0  0  0  0  0
   -2.9186   -1.0463    1.8409 H   0  0  0  0  0  0  0  0  0  0  0  0
  1  2  2  0  0  0  0
  2  3  1  0  0  0  0
  3  8  1  0  0  0  0
  4 25  1  6  0  0  0
  4  3  1  0  0  0  0
  4 18  1  0  0  0  0
  5  6  1  0  0  0  0
  5  4  1  0  0  0  0
  6  7  1  0  0  0  0
  6 10  1  0  0  0  0
  7 28  1  6  0  0  0
  7  9  1  0  0  0  0
  7  8  1  0  0  0  0
  8 30  1  0  0  0  0
  8 29  1  0  0  0  0
  9 31  1  0  0  0  0
 10 11  2  0  0  0  0
 12 10  1  0  0  0  0
 12 17  2  0  0  0  0
 13 12  1  0  0  0  0
 14 13  2  0  0  0  0
 14 15  1  0  0  0  0
 15 16  2  0  0  0  0
 16 17  1  0  0  0  0
 16 37  1  0  0  0  0
 17 38  1  0  0  0  0
 18 41  1  0  0  0  0
 18 40  1  0  0  0  0
 19  2  1  0  0  0  0
 19 24  2  0  0  0  0
 20 19  1  0  0  0  0
 21 20  2  0  0  0  0
 21 22  1  0  0  0  0
 22 23  2  0  0  0  0
 23 24  1  0  0  0  0
 23 45  1  0  0  0  0
 24 46  1  0  0  0  0
 26  5  1  0  0  0  0
 27  5  1  0  0  0  0
 32  9  1  0  0  0  0
 33  9  1  0  0  0  0
 34 13  1  0  0  0  0
 35 14  1  0  0  0  0
 36 15  1  0  0  0  0
 39 18  1  0  0  0  0
 42 20  1  0  0  0  0
 43 21  1  0  0  0  0
 44 22  1  0  0  0  0
M  END
