omegapdb_1z1r_07.log
 OpenBabel09261812563D

 66 68  0  0  1  0  0  0  0  0999 V2000
    0.4975   -0.0743    1.7159 C   0  0  2  0  0  0  0  0  0  0  0  0
    0.8216   -1.5116    1.2611 C   0  0  0  0  0  0  0  0  0  0  0  0
   -0.4285   -2.1864    0.7434 C   0  0  0  0  0  0  0  0  0  0  0  0
   -0.5697   -2.4814   -0.6129 C   0  0  0  0  0  0  0  0  0  0  0  0
   -1.8057   -2.8347   -1.1487 C   0  0  0  0  0  0  0  0  0  0  0  0
   -2.9289   -2.8868   -0.3265 C   0  0  0  0  0  0  0  0  0  0  0  0
   -2.7839   -2.6949    1.0499 C   0  0  0  0  0  0  0  0  0  0  0  0
   -1.5453   -2.3448    1.5689 C   0  0  0  0  0  0  0  0  0  0  0  0
   -4.1384   -3.1404   -0.9109 O   0  0  0  0  0  0  0  0  0  0  0  0
   -5.2119   -2.2458   -0.6000 C   0  0  0  0  0  0  0  0  0  0  0  0
   -5.2063   -0.9956   -1.4768 C   0  0  0  0  0  0  0  0  0  0  0  0
   -4.1103    0.0307   -1.1754 C   0  0  0  0  0  0  0  0  0  0  0  0
   -4.3440    0.7662    0.1385 C   0  0  0  0  0  0  0  0  0  0  0  0
   -5.2986    0.5240    0.8586 O   0  0  0  0  0  0  0  0  0  0  0  0
   -3.4682    1.7740    0.4682 N   0  0  0  0  0  0  0  0  0  0  0  0
   -2.1476    2.0165   -0.0831 C   0  0  2  0  0  0  0  0  0  0  0  0
   -1.1175    1.6266    0.9842 C   0  0  0  0  0  0  0  0  0  0  0  0
   -1.0615    2.2659    2.0392 O   0  0  0  0  0  0  0  0  0  0  0  0
   -0.3599    0.5586    0.7204 N   0  0  0  0  0  0  0  0  0  0  0  0
   -1.9592    3.4839   -0.4627 C   0  0  0  0  0  0  0  0  0  0  0  0
   -0.6229    3.6886   -1.1607 C   0  0  0  0  0  0  0  0  0  0  0  0
    0.1093    2.7453   -1.4429 O   0  0  0  0  0  0  0  0  0  0  0  0
   -0.3028    4.9662   -1.4629 N   0  0  0  0  0  0  0  0  0  0  0  0
    1.7337    0.7787    2.0917 C   0  0  2  0  0  0  0  0  0  0  0  0
    1.4832    1.5341    3.2582 O   0  0  0  0  0  0  0  0  0  0  0  0
    2.1997    1.7439    0.9921 C   0  0  0  0  0  0  0  0  0  0  0  0
    2.3302    1.1519   -0.3416 N   0  0  0  0  0  0  0  0  0  0  0  0
    3.8330    0.7900   -0.9492 S   0  0  0  0  0  0  0  0  0  0  0  0
    4.8623    1.4668   -0.1735 O   0  0  0  0  0  0  0  0  0  0  0  0
    3.7259    0.9606   -2.3904 O   0  0  0  0  0  0  0  0  0  0  0  0
    3.9976   -0.9508   -0.6185 C   0  0  0  0  0  0  0  0  0  0  0  0
    4.5830   -1.3691    0.5714 C   0  0  0  0  0  0  0  0  0  0  0  0
    4.6276   -2.7304    0.8593 C   0  0  0  0  0  0  0  0  0  0  0  0
    4.0981   -3.6518   -0.0401 C   0  0  0  0  0  0  0  0  0  0  0  0
    3.5332   -3.2199   -1.2392 C   0  0  0  0  0  0  0  0  0  0  0  0
    3.4810   -1.8622   -1.5351 C   0  0  0  0  0  0  0  0  0  0  0  0
   -0.0946   -0.1387    2.6372 H   0  0  0  0  0  0  0  0  0  0  0  0
    1.5864   -1.4926    0.4774 H   0  0  0  0  0  0  0  0  0  0  0  0
    1.2521   -2.0436    2.1178 H   0  0  0  0  0  0  0  0  0  0  0  0
    0.2948   -2.3921   -1.2703 H   0  0  0  0  0  0  0  0  0  0  0  0
   -1.9291   -3.0231   -2.2116 H   0  0  0  0  0  0  0  0  0  0  0  0
   -3.6432   -2.7893    1.7077 H   0  0  0  0  0  0  0  0  0  0  0  0
   -1.4567   -2.1489    2.6363 H   0  0  0  0  0  0  0  0  0  0  0  0
   -5.2064   -1.9687    0.4582 H   0  0  0  0  0  0  0  0  0  0  0  0
   -6.1209   -2.8210   -0.7959 H   0  0  0  0  0  0  0  0  0  0  0  0
   -6.1812   -0.5089   -1.3621 H   0  0  0  0  0  0  0  0  0  0  0  0
   -5.1161   -1.3144   -2.5217 H   0  0  0  0  0  0  0  0  0  0  0  0
   -4.0735    0.7747   -1.9824 H   0  0  0  0  0  0  0  0  0  0  0  0
   -3.1249   -0.4494   -1.1599 H   0  0  0  0  0  0  0  0  0  0  0  0
   -3.6284    2.1518    1.3955 H   0  0  0  0  0  0  0  0  0  0  0  0
   -2.0166    1.4045   -0.9766 H   0  0  0  0  0  0  0  0  0  0  0  0
   -0.3872    0.1631   -0.2081 H   0  0  0  0  0  0  0  0  0  0  0  0
   -2.7752    3.8042   -1.1209 H   0  0  0  0  0  0  0  0  0  0  0  0
   -2.0007    4.0980    0.4451 H   0  0  0  0  0  0  0  0  0  0  0  0
   -0.8748    5.7461   -1.1818 H   0  0  0  0  0  0  0  0  0  0  0  0
    0.5864    5.1478   -1.9046 H   0  0  0  0  0  0  0  0  0  0  0  0
    2.5516    0.0927    2.3494 H   0  0  0  0  0  0  0  0  0  0  0  0
    0.6308    1.9825    3.1056 H   0  0  0  0  0  0  0  0  0  0  0  0
    3.1426    2.2003    1.3083 H   0  0  0  0  0  0  0  0  0  0  0  0
    1.4612    2.5477    0.9137 H   0  0  0  0  0  0  0  0  0  0  0  0
    1.7777    1.6287   -1.0539 H   0  0  0  0  0  0  0  0  0  0  0  0
    5.0050   -0.6340    1.2513 H   0  0  0  0  0  0  0  0  0  0  0  0
    5.0827   -3.0715    1.7851 H   0  0  0  0  0  0  0  0  0  0  0  0
    4.1349   -4.7137    0.1881 H   0  0  0  0  0  0  0  0  0  0  0  0
    3.1384   -3.9437   -1.9471 H   0  0  0  0  0  0  0  0  0  0  0  0
    3.0572   -1.5014   -2.4683 H   0  0  0  0  0  0  0  0  0  0  0  0
  1 24  1  0  0  0  0
  1 37  1  1  0  0  0
  2  1  1  0  0  0  0
  2 39  1  0  0  0  0
  3  2  1  0  0  0  0
  3  8  2  0  0  0  0
  4  3  1  0  0  0  0
  5  4  2  0  0  0  0
  5  6  1  0  0  0  0
  6  7  2  0  0  0  0
  7  8  1  0  0  0  0
  7 42  1  0  0  0  0
  8 43  1  0  0  0  0
  9 10  1  0  0  0  0
  9  6  1  0  0  0  0
 10 44  1  0  0  0  0
 11 46  1  0  0  0  0
 11 12  1  0  0  0  0
 11 10  1  0  0  0  0
 12 49  1  0  0  0  0
 12 13  1  0  0  0  0
 13 15  1  0  0  0  0
 13 14  2  0  0  0  0
 15 50  1  0  0  0  0
 16 51  1  6  0  0  0
 16 15  1  0  0  0  0
 16 17  1  0  0  0  0
 17 18  2  0  0  0  0
 19 17  1  0  0  0  0
 19  1  1  0  0  0  0
 20 16  1  0  0  0  0
 20 54  1  0  0  0  0
 21 20  1  0  0  0  0
 22 21  2  0  0  0  0
 23 55  1  0  0  0  0
 23 21  1  0  0  0  0
 24 57  1  1  0  0  0
 24 25  1  0  0  0  0
 26 59  1  0  0  0  0
 26 24  1  0  0  0  0
 27 26  1  0  0  0  0
 28 31  1  0  0  0  0
 28 27  1  0  0  0  0
 28 29  2  0  0  0  0
 30 28  2  0  0  0  0
 31 32  2  0  0  0  0
 32 33  1  0  0  0  0
 32 62  1  0  0  0  0
 33 63  1  0  0  0  0
 34 64  1  0  0  0  0
 34 33  2  0  0  0  0
 35 34  1  0  0  0  0
 36 35  2  0  0  0  0
 36 31  1  0  0  0  0
 38  2  1  0  0  0  0
 40  4  1  0  0  0  0
 41  5  1  0  0  0  0
 45 10  1  0  0  0  0
 47 11  1  0  0  0  0
 48 12  1  0  0  0  0
 52 19  1  0  0  0  0
 53 20  1  0  0  0  0
 56 23  1  0  0  0  0
 58 25  1  0  0  0  0
 60 26  1  0  0  0  0
 61 27  1  0  0  0  0
 65 35  1  0  0  0  0
 66 36  1  0  0  0  0
M  END
