omegacsd_SPIRIL_03.log
 OpenBabel09261812563D

 57 60  0  0  1  0  0  0  0  0999 V2000
   -2.5475    0.3042    1.4599 C   0  0  0  0  0  0  0  0  0  0  0  0
   -3.2064    0.8455    0.1708 C   0  0  2  0  0  0  0  0  0  0  0  0
   -3.2768    2.3742    0.2666 C   0  0  0  0  0  0  0  0  0  0  0  0
   -2.3352    3.1357    0.3866 O   0  0  0  0  0  0  0  0  0  0  0  0
   -4.5828    2.7311    0.1902 N   0  0  0  0  0  0  0  0  0  0  0  0
   -5.5015    1.6344    0.0422 C   0  0  0  0  0  0  0  0  0  0  0  0
   -4.6246    0.4815    0.0770 N   0  0  0  0  0  0  0  0  0  0  0  0
   -5.1609   -0.7908   -0.0820 C   0  0  0  0  0  0  0  0  0  0  0  0
   -4.3732   -1.9587   -0.1028 C   0  0  0  0  0  0  0  0  0  0  0  0
   -4.9605   -3.2072   -0.2584 C   0  0  0  0  0  0  0  0  0  0  0  0
   -6.3373   -3.3500   -0.3977 C   0  0  0  0  0  0  0  0  0  0  0  0
   -7.1227   -2.2045   -0.3776 C   0  0  0  0  0  0  0  0  0  0  0  0
   -6.5527   -0.9463   -0.2233 C   0  0  0  0  0  0  0  0  0  0  0  0
   -2.4152    0.4755   -1.1050 C   0  0  0  0  0  0  0  0  0  0  0  0
   -0.9055    0.6217   -0.9261 C   0  0  0  0  0  0  0  0  0  0  0  0
   -0.4732   -0.1287    0.2456 N   0  0  0  0  0  0  0  0  0  0  0  0
    0.9624   -0.3474    0.3004 C   0  0  0  0  0  0  0  0  0  0  0  0
    1.8567    0.9069    0.4042 C   0  0  0  0  0  0  0  0  0  0  0  0
    3.3068    0.5215    0.4977 C   0  0  0  0  0  0  0  0  0  0  0  0
    4.1918    0.4457   -0.5057 C   0  0  0  0  0  0  0  0  0  0  0  0
    5.5879   -0.0103   -0.2444 C   0  0  0  0  0  0  0  0  0  0  0  0
    5.8580   -1.0163    0.6915 C   0  0  0  0  0  0  0  0  0  0  0  0
    7.1563   -1.4356    0.9537 C   0  0  0  0  0  0  0  0  0  0  0  0
    8.1989   -0.8444    0.2589 C   0  0  0  0  0  0  0  0  0  0  0  0
    7.9768    0.1416   -0.6881 C   0  0  0  0  0  0  0  0  0  0  0  0
    6.6703    0.5468   -0.9359 C   0  0  0  0  0  0  0  0  0  0  0  0
    9.4600   -1.2477    0.5018 F   0  0  0  0  0  0  0  0  0  0  0  0
    3.8657    0.8210   -1.9322 C   0  0  0  0  0  0  0  0  0  0  0  0
   -1.0276    0.4598    1.4578 C   0  0  0  0  0  0  0  0  0  0  0  0
   -2.7926   -0.7542    1.5738 H   0  0  0  0  0  0  0  0  0  0  0  0
   -2.9804    0.8252    2.3227 H   0  0  0  0  0  0  0  0  0  0  0  0
   -4.8641    3.6983    0.2237 H   0  0  0  0  0  0  0  0  0  0  0  0
   -6.2358    1.6118    0.8627 H   0  0  0  0  0  0  0  0  0  0  0  0
   -6.0562    1.6993   -0.9083 H   0  0  0  0  0  0  0  0  0  0  0  0
   -3.2963   -1.9053    0.0012 H   0  0  0  0  0  0  0  0  0  0  0  0
   -4.3185   -4.0849   -0.2699 H   0  0  0  0  0  0  0  0  0  0  0  0
   -6.7863   -4.3313   -0.5194 H   0  0  0  0  0  0  0  0  0  0  0  0
   -8.2023   -2.2812   -0.4845 H   0  0  0  0  0  0  0  0  0  0  0  0
   -7.2093   -0.0822   -0.2127 H   0  0  0  0  0  0  0  0  0  0  0  0
   -2.7618    1.1075   -1.9323 H   0  0  0  0  0  0  0  0  0  0  0  0
   -2.6374   -0.5583   -1.3796 H   0  0  0  0  0  0  0  0  0  0  0  0
   -0.6424    1.6904   -0.8568 H   0  0  0  0  0  0  0  0  0  0  0  0
   -0.4013    0.2092   -1.8091 H   0  0  0  0  0  0  0  0  0  0  0  0
    1.1697   -1.0049    1.1557 H   0  0  0  0  0  0  0  0  0  0  0  0
    1.2532   -0.9075   -0.5989 H   0  0  0  0  0  0  0  0  0  0  0  0
    1.6742    1.5644   -0.4523 H   0  0  0  0  0  0  0  0  0  0  0  0
    1.5795    1.4809    1.2972 H   0  0  0  0  0  0  0  0  0  0  0  0
    3.6516    0.2540    1.4974 H   0  0  0  0  0  0  0  0  0  0  0  0
    5.0313   -1.4963    1.2086 H   0  0  0  0  0  0  0  0  0  0  0  0
    7.3678   -2.2192    1.6745 H   0  0  0  0  0  0  0  0  0  0  0  0
    8.8191    0.5789   -1.2151 H   0  0  0  0  0  0  0  0  0  0  0  0
    6.4969    1.3235   -1.6763 H   0  0  0  0  0  0  0  0  0  0  0  0
    2.7895    0.9062   -2.0999 H   0  0  0  0  0  0  0  0  0  0  0  0
    4.2587    0.0720   -2.6285 H   0  0  0  0  0  0  0  0  0  0  0  0
    4.3160    1.7837   -2.2056 H   0  0  0  0  0  0  0  0  0  0  0  0
   -0.7657    1.5256    1.5621 H   0  0  0  0  0  0  0  0  0  0  0  0
   -0.6145   -0.0722    2.3236 H   0  0  0  0  0  0  0  0  0  0  0  0
  1 30  1  0  0  0  0
  1 31  1  0  0  0  0
  2  3  1  1  0  0  0
  2  1  1  0  0  0  0
  3  4  2  0  0  0  0
  5 32  1  0  0  0  0
  5  3  1  0  0  0  0
  6  7  1  0  0  0  0
  6  5  1  0  0  0  0
  6 33  1  0  0  0  0
  7  2  1  0  0  0  0
  8  7  1  0  0  0  0
  9  8  1  0  0  0  0
  9 35  1  0  0  0  0
 10  9  2  0  0  0  0
 11 12  2  0  0  0  0
 11 10  1  0  0  0  0
 12 13  1  0  0  0  0
 13 39  1  0  0  0  0
 13  8  2  0  0  0  0
 14 15  1  0  0  0  0
 14  2  1  0  0  0  0
 15 42  1  0  0  0  0
 15 16  1  0  0  0  0
 16 17  1  0  0  0  0
 16 29  1  0  0  0  0
 17 18  1  0  0  0  0
 17 44  1  0  0  0  0
 18 19  1  0  0  0  0
 18 47  1  0  0  0  0
 19 48  1  0  0  0  0
 20 21  1  0  0  0  0
 20 19  2  0  0  0  0
 21 22  2  0  0  0  0
 22 23  1  0  0  0  0
 22 49  1  0  0  0  0
 23 50  1  0  0  0  0
 24 27  1  0  0  0  0
 24 23  2  0  0  0  0
 25 24  1  0  0  0  0
 26 25  2  0  0  0  0
 26 21  1  0  0  0  0
 28 20  1  0  0  0  0
 29  1  1  0  0  0  0
 29 56  1  0  0  0  0
 29 57  1  0  0  0  0
 34  6  1  0  0  0  0
 36 10  1  0  0  0  0
 37 11  1  0  0  0  0
 38 12  1  0  0  0  0
 40 14  1  0  0  0  0
 41 14  1  0  0  0  0
 43 15  1  0  0  0  0
 45 17  1  0  0  0  0
 46 18  1  0  0  0  0
 51 25  1  0  0  0  0
 52 26  1  0  0  0  0
 53 28  1  0  0  0  0
 54 28  1  0  0  0  0
 55 28  1  0  0  0  0
M  END
