omegapdb_1z1r_11.log
 OpenBabel09261812563D

 66 68  0  0  1  0  0  0  0  0999 V2000
    0.4312   -2.0200    0.0150 C   0  0  2  0  0  0  0  0  0  0  0  0
    1.4724   -3.0140    0.5610 C   0  0  0  0  0  0  0  0  0  0  0  0
    2.8723   -2.4838    0.3654 C   0  0  0  0  0  0  0  0  0  0  0  0
    3.6023   -1.9770    1.4415 C   0  0  0  0  0  0  0  0  0  0  0  0
    4.8102   -1.3140    1.2481 C   0  0  0  0  0  0  0  0  0  0  0  0
    5.2918   -1.1291   -0.0455 C   0  0  0  0  0  0  0  0  0  0  0  0
    4.6159   -1.6948   -1.1246 C   0  0  0  0  0  0  0  0  0  0  0  0
    3.4182   -2.3667   -0.9153 C   0  0  0  0  0  0  0  0  0  0  0  0
    6.4195   -0.3910   -0.2983 O   0  0  0  0  0  0  0  0  0  0  0  0
    6.3485    0.9874    0.0704 C   0  0  0  0  0  0  0  0  0  0  0  0
    5.3059    1.7949   -0.7051 C   0  0  0  0  0  0  0  0  0  0  0  0
    3.8803    1.7224   -0.1560 C   0  0  0  0  0  0  0  0  0  0  0  0
    2.9275    2.6025   -0.9495 C   0  0  0  0  0  0  0  0  0  0  0  0
    3.2807    3.2448   -1.9209 O   0  0  0  0  0  0  0  0  0  0  0  0
    1.6202    2.6693   -0.5073 N   0  0  0  0  0  0  0  0  0  0  0  0
    1.0048    1.7420    0.4147 C   0  0  2  0  0  0  0  0  0  0  0  0
    0.6293    0.4193   -0.2781 C   0  0  0  0  0  0  0  0  0  0  0  0
    0.2442    0.4094   -1.4398 O   0  0  0  0  0  0  0  0  0  0  0  0
    0.7011   -0.6808    0.5081 N   0  0  0  0  0  0  0  0  0  0  0  0
   -0.2698    2.3647    0.9930 C   0  0  0  0  0  0  0  0  0  0  0  0
   -0.8280    1.5320    2.1389 C   0  0  0  0  0  0  0  0  0  0  0  0
   -0.1042    0.9044    2.9004 O   0  0  0  0  0  0  0  0  0  0  0  0
   -2.1796    1.5346    2.2578 N   0  0  0  0  0  0  0  0  0  0  0  0
   -0.9993   -2.4467    0.3605 C   0  0  2  0  0  0  0  0  0  0  0  0
   -1.1899   -3.7483   -0.1388 O   0  0  0  0  0  0  0  0  0  0  0  0
   -2.0251   -1.4845   -0.2306 C   0  0  0  0  0  0  0  0  0  0  0  0
   -3.3670   -1.9370    0.1497 N   0  0  0  0  0  0  0  0  0  0  0  0
   -4.6644   -1.2994   -0.6833 S   0  0  0  0  0  0  0  0  0  0  0  0
   -4.4395   -1.5744   -2.0879 O   0  0  0  0  0  0  0  0  0  0  0  0
   -5.8433   -1.7532    0.0316 O   0  0  0  0  0  0  0  0  0  0  0  0
   -4.5535    0.4695   -0.4640 C   0  0  0  0  0  0  0  0  0  0  0  0
   -5.3209    1.0760    0.5265 C   0  0  0  0  0  0  0  0  0  0  0  0
   -5.2234    2.4526    0.7128 C   0  0  0  0  0  0  0  0  0  0  0  0
   -4.3620    3.2056   -0.0852 C   0  0  0  0  0  0  0  0  0  0  0  0
   -3.6008    2.5860   -1.0763 C   0  0  0  0  0  0  0  0  0  0  0  0
   -3.6960    1.2113   -1.2744 C   0  0  0  0  0  0  0  0  0  0  0  0
    0.5152   -1.9670   -1.0758 H   0  0  0  0  0  0  0  0  0  0  0  0
    1.3179   -3.9724    0.0561 H   0  0  0  0  0  0  0  0  0  0  0  0
    1.2829   -3.1854    1.6298 H   0  0  0  0  0  0  0  0  0  0  0  0
    3.2110   -2.0864    2.4521 H   0  0  0  0  0  0  0  0  0  0  0  0
    5.3613   -0.9111    2.0940 H   0  0  0  0  0  0  0  0  0  0  0  0
    5.0239   -1.5628   -2.1226 H   0  0  0  0  0  0  0  0  0  0  0  0
    2.8784   -2.7718   -1.7696 H   0  0  0  0  0  0  0  0  0  0  0  0
    7.3484    1.3697   -0.1506 H   0  0  0  0  0  0  0  0  0  0  0  0
    6.1886    1.0843    1.1550 H   0  0  0  0  0  0  0  0  0  0  0  0
    5.3191    1.4778   -1.7533 H   0  0  0  0  0  0  0  0  0  0  0  0
    5.6181    2.8456   -0.7078 H   0  0  0  0  0  0  0  0  0  0  0  0
    3.8635    2.0290    0.8996 H   0  0  0  0  0  0  0  0  0  0  0  0
    3.4951    0.6959   -0.1790 H   0  0  0  0  0  0  0  0  0  0  0  0
    1.0094    3.0416   -1.2245 H   0  0  0  0  0  0  0  0  0  0  0  0
    1.6876    1.5530    1.2469 H   0  0  0  0  0  0  0  0  0  0  0  0
    0.9506   -0.5522    1.4812 H   0  0  0  0  0  0  0  0  0  0  0  0
   -0.0270    3.3600    1.3843 H   0  0  0  0  0  0  0  0  0  0  0  0
   -1.0179    2.4901    0.1997 H   0  0  0  0  0  0  0  0  0  0  0  0
   -2.7774    2.0970    1.6685 H   0  0  0  0  0  0  0  0  0  0  0  0
   -2.5809    1.0998    3.0755 H   0  0  0  0  0  0  0  0  0  0  0  0
   -1.1013   -2.4322    1.4641 H   0  0  0  0  0  0  0  0  0  0  0  0
   -2.1466   -3.8956   -0.1869 H   0  0  0  0  0  0  0  0  0  0  0  0
   -1.9555   -1.5149   -1.3218 H   0  0  0  0  0  0  0  0  0  0  0  0
   -1.8354   -0.4594    0.1079 H   0  0  0  0  0  0  0  0  0  0  0  0
   -3.5503   -1.8848    1.1491 H   0  0  0  0  0  0  0  0  0  0  0  0
   -6.0021    0.4719    1.1191 H   0  0  0  0  0  0  0  0  0  0  0  0
   -5.8323    2.9403    1.4694 H   0  0  0  0  0  0  0  0  0  0  0  0
   -4.2967    4.2817    0.0540 H   0  0  0  0  0  0  0  0  0  0  0  0
   -2.9456    3.1761   -1.7117 H   0  0  0  0  0  0  0  0  0  0  0  0
   -3.1241    0.7230   -2.0585 H   0  0  0  0  0  0  0  0  0  0  0  0
  1 37  1  6  0  0  0
  1 24  1  0  0  0  0
  1 19  1  0  0  0  0
  1  2  1  0  0  0  0
  2 39  1  0  0  0  0
  3  2  1  0  0  0  0
  3  4  2  0  0  0  0
  4 40  1  0  0  0  0
  5  4  1  0  0  0  0
  5 41  1  0  0  0  0
  6  5  2  0  0  0  0
  7  8  2  0  0  0  0
  7  6  1  0  0  0  0
  8  3  1  0  0  0  0
  9  6  1  0  0  0  0
  9 10  1  0  0  0  0
 10 45  1  0  0  0  0
 11 12  1  0  0  0  0
 11 10  1  0  0  0  0
 12 48  1  0  0  0  0
 13 15  1  0  0  0  0
 13 12  1  0  0  0  0
 14 13  2  0  0  0  0
 15 16  1  0  0  0  0
 16 20  1  0  0  0  0
 16 51  1  1  0  0  0
 17 16  1  0  0  0  0
 17 19  1  0  0  0  0
 18 17  2  0  0  0  0
 19 52  1  0  0  0  0
 20 53  1  0  0  0  0
 20 21  1  0  0  0  0
 21 23  1  0  0  0  0
 21 22  2  0  0  0  0
 23 56  1  0  0  0  0
 24 57  1  1  0  0  0
 25 24  1  0  0  0  0
 26 60  1  0  0  0  0
 26 27  1  0  0  0  0
 26 24  1  0  0  0  0
 27 61  1  0  0  0  0
 28 31  1  0  0  0  0
 28 30  2  0  0  0  0
 28 27  1  0  0  0  0
 29 28  2  0  0  0  0
 31 32  2  0  0  0  0
 32 33  1  0  0  0  0
 32 62  1  0  0  0  0
 33 63  1  0  0  0  0
 34 64  1  0  0  0  0
 34 33  2  0  0  0  0
 35 34  1  0  0  0  0
 36 35  2  0  0  0  0
 36 31  1  0  0  0  0
 38  2  1  0  0  0  0
 42  7  1  0  0  0  0
 43  8  1  0  0  0  0
 44 10  1  0  0  0  0
 46 11  1  0  0  0  0
 47 11  1  0  0  0  0
 49 12  1  0  0  0  0
 50 15  1  0  0  0  0
 54 20  1  0  0  0  0
 55 23  1  0  0  0  0
 58 25  1  0  0  0  0
 59 26  1  0  0  0  0
 65 35  1  0  0  0  0
 66 36  1  0  0  0  0
M  END
