omegacsd_CEJTIU_03.log
 OpenBabel09261812563D

 41 42  0  0  0  0  0  0  0  0999 V2000
   -6.6185   -1.6156   -0.1059 C   0  0  0  0  0  0  0  0  0  0  0  0
   -6.0618   -0.3488    0.3189 N   0  0  0  0  0  0  0  0  0  0  0  0
   -6.9180    0.8118    0.1991 C   0  0  0  0  0  0  0  0  0  0  0  0
   -4.6847   -0.1618    0.1815 C   0  0  0  0  0  0  0  0  0  0  0  0
   -3.8132   -1.2417   -0.0336 C   0  0  0  0  0  0  0  0  0  0  0  0
   -2.4381   -1.0708   -0.1366 C   0  0  0  0  0  0  0  0  0  0  0  0
   -1.8795    0.2026   -0.0357 C   0  0  0  0  0  0  0  0  0  0  0  0
   -2.7330    1.2871    0.1639 C   0  0  0  0  0  0  0  0  0  0  0  0
   -4.1049    1.1158    0.2659 C   0  0  0  0  0  0  0  0  0  0  0  0
   -0.4960    0.4773   -0.1339 N   0  0  0  0  0  0  0  0  0  0  0  0
    0.5031   -0.4217   -0.2785 C   0  0  0  0  0  0  0  0  0  0  0  0
    0.4076   -1.6329   -0.3603 O   0  0  0  0  0  0  0  0  0  0  0  0
    1.8058    0.1483   -0.3407 N   0  0  0  0  0  0  0  0  0  0  0  0
    2.1962    1.4584   -0.2774 C   0  0  0  0  0  0  0  0  0  0  0  0
    1.4199    2.3951   -0.1482 O   0  0  0  0  0  0  0  0  0  0  0  0
    3.6933    1.7148   -0.4329 C   0  0  0  0  0  0  0  0  0  0  0  0
    4.6086    0.5622   -0.0986 C   0  0  0  0  0  0  0  0  0  0  0  0
    5.0911   -0.2843   -1.0987 C   0  0  0  0  0  0  0  0  0  0  0  0
    5.9079   -1.3669   -0.7810 C   0  0  0  0  0  0  0  0  0  0  0  0
    6.2525   -1.6138    0.5435 C   0  0  0  0  0  0  0  0  0  0  0  0
    5.7773   -0.7748    1.5487 C   0  0  0  0  0  0  0  0  0  0  0  0
    4.9605    0.3034    1.2289 C   0  0  0  0  0  0  0  0  0  0  0  0
   -7.7001   -1.5983    0.0468 H   0  0  0  0  0  0  0  0  0  0  0  0
   -6.4198   -1.8406   -1.1667 H   0  0  0  0  0  0  0  0  0  0  0  0
   -6.2187   -2.4377    0.4974 H   0  0  0  0  0  0  0  0  0  0  0  0
   -6.7109    1.5325    0.9977 H   0  0  0  0  0  0  0  0  0  0  0  0
   -6.8092    1.3308   -0.7676 H   0  0  0  0  0  0  0  0  0  0  0  0
   -7.9592    0.4997    0.3079 H   0  0  0  0  0  0  0  0  0  0  0  0
   -4.2034   -2.2494   -0.1256 H   0  0  0  0  0  0  0  0  0  0  0  0
   -1.7953   -1.9267   -0.2984 H   0  0  0  0  0  0  0  0  0  0  0  0
   -2.3185    2.2911    0.2380 H   0  0  0  0  0  0  0  0  0  0  0  0
   -4.7210    1.9957    0.4145 H   0  0  0  0  0  0  0  0  0  0  0  0
   -0.2020    1.4501   -0.0816 H   0  0  0  0  0  0  0  0  0  0  0  0
    2.5200   -0.5644   -0.4212 H   0  0  0  0  0  0  0  0  0  0  0  0
    3.9076    2.5892    0.1885 H   0  0  0  0  0  0  0  0  0  0  0  0
    3.8383    2.0319   -1.4732 H   0  0  0  0  0  0  0  0  0  0  0  0
    4.8307   -0.0907   -2.1381 H   0  0  0  0  0  0  0  0  0  0  0  0
    6.2763   -2.0156   -1.5713 H   0  0  0  0  0  0  0  0  0  0  0  0
    6.8906   -2.4571    0.7935 H   0  0  0  0  0  0  0  0  0  0  0  0
    6.0428   -0.9617    2.5859 H   0  0  0  0  0  0  0  0  0  0  0  0
    4.5903    0.9563    2.0173 H   0  0  0  0  0  0  0  0  0  0  0  0
  1 23  1  0  0  0  0
  1  2  1  0  0  0  0
  1 25  1  0  0  0  0
  3 28  1  0  0  0  0
  3  2  1  0  0  0  0
  3 26  1  0  0  0  0
  4  9  1  0  0  0  0
  4  2  1  0  0  0  0
  5  4  2  0  0  0  0
  6  7  2  0  0  0  0
  6  5  1  0  0  0  0
  7  8  1  0  0  0  0
  8 31  1  0  0  0  0
  8  9  2  0  0  0  0
  9 32  1  0  0  0  0
 10 33  1  0  0  0  0
 10  7  1  0  0  0  0
 11 10  1  0  0  0  0
 12 11  2  0  0  0  0
 13 11  1  0  0  0  0
 13 14  1  0  0  0  0
 14 15  2  0  0  0  0
 16 14  1  0  0  0  0
 16 17  1  0  0  0  0
 16 35  1  0  0  0  0
 17 22  2  0  0  0  0
 18 19  2  0  0  0  0
 18 17  1  0  0  0  0
 19 20  1  0  0  0  0
 20 39  1  0  0  0  0
 20 21  2  0  0  0  0
 21 40  1  0  0  0  0
 22 21  1  0  0  0  0
 22 41  1  0  0  0  0
 24  1  1  0  0  0  0
 27  3  1  0  0  0  0
 29  5  1  0  0  0  0
 30  6  1  0  0  0  0
 34 13  1  0  0  0  0
 36 16  1  0  0  0  0
 37 18  1  0  0  0  0
 38 19  1  0  0  0  0
M  END
