omegapdb_1qxw_29.log
 OpenBabel09261812563D

 36 36  0  0  1  0  0  0  0  0999 V2000
   -3.1151   -2.7143    0.0667 C   0  0  0  0  0  0  0  0  0  0  0  0
   -3.7936   -1.6763   -0.7934 C   0  0  0  0  0  0  0  0  0  0  0  0
   -2.9772   -1.2681    0.4085 C   0  0  0  0  0  0  0  0  0  0  0  0
   -1.6960   -0.6233    0.2865 N   0  0  0  0  0  0  0  0  0  0  0  0
   -1.7969    0.7465   -0.1955 C   0  0  0  0  0  0  0  0  0  0  0  0
   -0.5923    1.6530    0.1022 C   0  0  0  0  0  0  0  0  0  0  0  0
    0.7687    1.1736   -0.4637 C   0  0  1  0  0  0  0  0  0  0  0  0
    1.6122    2.3729   -0.5806 N   0  0  0  0  0  0  0  0  0  0  0  0
    1.4267    0.0572    0.3550 C   0  0  0  0  0  0  0  0  0  0  0  0
    2.6329   -0.5700   -0.3427 C   0  0  0  0  0  0  0  0  0  0  0  0
    3.3031   -1.6606    0.4920 C   0  0  0  0  0  0  0  0  0  0  0  0
    4.5001   -2.2952   -0.2111 C   0  0  0  0  0  0  0  0  0  0  0  0
   -0.9382    2.8713   -0.4906 O   0  0  0  0  0  0  0  0  0  0  0  0
   -0.3800    1.8231    1.4900 O   0  0  0  0  0  0  0  0  0  0  0  0
   -3.7260   -3.3433    0.7074 H   0  0  0  0  0  0  0  0  0  0  0  0
   -2.2455   -3.2212   -0.3465 H   0  0  0  0  0  0  0  0  0  0  0  0
   -3.3677   -1.4866   -1.7761 H   0  0  0  0  0  0  0  0  0  0  0  0
   -4.8760   -1.5915   -0.7495 H   0  0  0  0  0  0  0  0  0  0  0  0
   -3.5352   -0.9175    1.2757 H   0  0  0  0  0  0  0  0  0  0  0  0
   -1.1148   -1.1680   -0.3438 H   0  0  0  0  0  0  0  0  0  0  0  0
   -2.6542    1.2154    0.3041 H   0  0  0  0  0  0  0  0  0  0  0  0
   -2.0025    0.8125   -1.2761 H   0  0  0  0  0  0  0  0  0  0  0  0
    0.5788    0.8255   -1.4893 H   0  0  0  0  0  0  0  0  0  0  0  0
    2.3710    2.2256   -1.2368 H   0  0  0  0  0  0  0  0  0  0  0  0
    2.0245    2.5788    0.3262 H   0  0  0  0  0  0  0  0  0  0  0  0
    1.7277    0.4821    1.3215 H   0  0  0  0  0  0  0  0  0  0  0  0
    0.6911   -0.7156    0.6011 H   0  0  0  0  0  0  0  0  0  0  0  0
    3.3786    0.2042   -0.5777 H   0  0  0  0  0  0  0  0  0  0  0  0
    2.3211   -0.9958   -1.3091 H   0  0  0  0  0  0  0  0  0  0  0  0
    3.6214   -1.2332    1.4525 H   0  0  0  0  0  0  0  0  0  0  0  0
    2.5626   -2.4348    0.7345 H   0  0  0  0  0  0  0  0  0  0  0  0
    5.2664   -1.5445   -0.4385 H   0  0  0  0  0  0  0  0  0  0  0  0
    4.9650   -3.0699    0.4077 H   0  0  0  0  0  0  0  0  0  0  0  0
    4.2003   -2.7591   -1.1583 H   0  0  0  0  0  0  0  0  0  0  0  0
   -0.0752    3.2955   -0.6772 H   0  0  0  0  0  0  0  0  0  0  0  0
   -1.1177    2.3635    1.8036 H   0  0  0  0  0  0  0  0  0  0  0  0
  1  3  1  0  0  0  0
  1 15  1  0  0  0  0
  2 18  1  0  0  0  0
  2  1  1  0  0  0  0
  2  3  1  0  0  0  0
  3 19  1  0  0  0  0
  4  3  1  0  0  0  0
  5  6  1  0  0  0  0
  5  4  1  0  0  0  0
  5 21  1  0  0  0  0
  6 14  1  0  0  0  0
  7 23  1  6  0  0  0
  7  6  1  0  0  0  0
  7  9  1  0  0  0  0
  8  7  1  0  0  0  0
  8 25  1  0  0  0  0
  9 27  1  0  0  0  0
  9 26  1  0  0  0  0
 10  9  1  0  0  0  0
 10 11  1  0  0  0  0
 11 31  1  0  0  0  0
 11 30  1  0  0  0  0
 12 33  1  0  0  0  0
 12 11  1  0  0  0  0
 13  6  1  0  0  0  0
 14 36  1  0  0  0  0
 16  1  1  0  0  0  0
 17  2  1  0  0  0  0
 20  4  1  0  0  0  0
 22  5  1  0  0  0  0
 24  8  1  0  0  0  0
 28 10  1  0  0  0  0
 29 10  1  0  0  0  0
 32 12  1  0  0  0  0
 34 12  1  0  0  0  0
 35 13  1  0  0  0  0
M  END
