omegacsd_GALSEM_05.log
 OpenBabel09261812563D

 39 40  0  0  0  0  0  0  0  0999 V2000
    2.3566   -0.1862   -1.5803 S   0  0  0  0  0  0  0  0  0  0  0  0
    1.1853   -0.7325   -2.2645 O   0  0  0  0  0  0  0  0  0  0  0  0
    3.5437    0.1630   -2.3241 O   0  0  0  0  0  0  0  0  0  0  0  0
    2.7106   -1.4001   -0.4640 N   0  0  0  0  0  0  0  0  0  0  0  0
    3.7898   -1.3433    0.4178 C   0  0  0  0  0  0  0  0  0  0  0  0
    4.4200   -0.3237    0.5803 O   0  0  0  0  0  0  0  0  0  0  0  0
    4.0663   -2.6495    1.1380 C   0  0  0  0  0  0  0  0  0  0  0  0
    5.1390   -2.4913    2.2068 C   0  0  0  0  0  0  0  0  0  0  0  0
    1.8738    1.1850   -0.5909 C   0  0  0  0  0  0  0  0  0  0  0  0
    0.5982    1.2737    0.0122 C   0  0  0  0  0  0  0  0  0  0  0  0
   -0.3530    0.3014   -0.1725 N   0  0  0  0  0  0  0  0  0  0  0  0
   -1.6027    0.2122    0.4711 C   0  0  0  0  0  0  0  0  0  0  0  0
   -2.7250   -0.1199   -0.2913 C   0  0  0  0  0  0  0  0  0  0  0  0
   -3.9568   -0.2818    0.3261 C   0  0  0  0  0  0  0  0  0  0  0  0
   -4.0979   -0.1002    1.6998 C   0  0  0  0  0  0  0  0  0  0  0  0
   -2.9802    0.2288    2.4552 C   0  0  0  0  0  0  0  0  0  0  0  0
   -1.7345    0.3707    1.8520 C   0  0  0  0  0  0  0  0  0  0  0  0
   -5.1762   -0.6322   -0.4834 C   0  0  0  0  0  0  0  0  0  0  0  0
   -4.8814   -0.8718   -1.7719 F   0  0  0  0  0  0  0  0  0  0  0  0
   -6.0834    0.3611   -0.4543 F   0  0  0  0  0  0  0  0  0  0  0  0
   -5.7851   -1.7289    0.0045 F   0  0  0  0  0  0  0  0  0  0  0  0
    0.3780    2.4299    0.7800 C   0  0  0  0  0  0  0  0  0  0  0  0
    1.3860    3.3685    0.9021 C   0  0  0  0  0  0  0  0  0  0  0  0
    2.5978    3.2794    0.3400 N   0  0  0  0  0  0  0  0  0  0  0  0
    2.8166    2.1953   -0.3928 C   0  0  0  0  0  0  0  0  0  0  0  0
    2.2282   -2.2714   -0.6491 H   0  0  0  0  0  0  0  0  0  0  0  0
    4.3714   -3.3877    0.3843 H   0  0  0  0  0  0  0  0  0  0  0  0
    3.1275   -3.0200    1.5699 H   0  0  0  0  0  0  0  0  0  0  0  0
    4.8266   -1.7723    2.9688 H   0  0  0  0  0  0  0  0  0  0  0  0
    5.3363   -3.4509    2.6930 H   0  0  0  0  0  0  0  0  0  0  0  0
    6.0690   -2.1220    1.7679 H   0  0  0  0  0  0  0  0  0  0  0  0
   -0.2255   -0.2753   -0.9976 H   0  0  0  0  0  0  0  0  0  0  0  0
   -2.6319   -0.2483   -1.3657 H   0  0  0  0  0  0  0  0  0  0  0  0
   -5.0692   -0.2248    2.1694 H   0  0  0  0  0  0  0  0  0  0  0  0
   -3.0716    0.3585    3.5298 H   0  0  0  0  0  0  0  0  0  0  0  0
   -0.8573    0.5880    2.4550 H   0  0  0  0  0  0  0  0  0  0  0  0
   -0.5838    2.6055    1.2477 H   0  0  0  0  0  0  0  0  0  0  0  0
    1.2037    4.2674    1.4891 H   0  0  0  0  0  0  0  0  0  0  0  0
    3.7940    2.0957   -0.8571 H   0  0  0  0  0  0  0  0  0  0  0  0
  1  9  1  0  0  0  0
  1  4  1  0  0  0  0
  2  1  2  0  0  0  0
  3  1  2  0  0  0  0
  4  5  1  0  0  0  0
  5  6  2  0  0  0  0
  5  7  1  0  0  0  0
  7 28  1  0  0  0  0
  7  8  1  0  0  0  0
  8 30  1  0  0  0  0
  8 29  1  0  0  0  0
  9 25  2  0  0  0  0
  9 10  1  0  0  0  0
 10 22  2  0  0  0  0
 11 10  1  0  0  0  0
 11 12  1  0  0  0  0
 12 17  2  0  0  0  0
 13 14  2  0  0  0  0
 13 12  1  0  0  0  0
 14 15  1  0  0  0  0
 15 34  1  0  0  0  0
 15 16  2  0  0  0  0
 16 35  1  0  0  0  0
 17 36  1  0  0  0  0
 17 16  1  0  0  0  0
 18 20  1  0  0  0  0
 18 21  1  0  0  0  0
 18 14  1  0  0  0  0
 19 18  1  0  0  0  0
 22 23  1  0  0  0  0
 22 37  1  0  0  0  0
 23 38  1  0  0  0  0
 24 23  2  0  0  0  0
 25 24  1  0  0  0  0
 26  4  1  0  0  0  0
 27  7  1  0  0  0  0
 31  8  1  0  0  0  0
 32 11  1  0  0  0  0
 33 13  1  0  0  0  0
 39 25  1  0  0  0  0
M  END
