omegacsd_CDBMPI10_06.log
 OpenBabel09261812563D

 46 48  0  0  1  0  0  0  0  0999 V2000
    2.0194    1.9797    0.8008 O   0  0  0  0  0  0  0  0  0  0  0  0
    2.2020    1.0203    0.0647 C   0  0  0  0  0  0  0  0  0  0  0  0
    1.2381    0.5325   -0.7998 N   0  0  0  0  0  0  0  0  0  0  0  0
   -0.0381    1.2493   -0.9537 C   0  0  1  0  0  0  0  0  0  0  0  0
   -1.0099    0.8411    0.1590 C   0  0  0  0  0  0  0  0  0  0  0  0
   -1.1846   -0.6110    0.1730 N   0  0  0  0  0  0  0  0  0  0  0  0
    0.0515   -1.4029    0.1959 C   0  0  1  0  0  0  0  0  0  0  0  0
    1.0175   -0.9138   -0.8946 C   0  0  0  0  0  0  0  0  0  0  0  0
    0.6782   -1.3826    1.5915 C   0  0  0  0  0  0  0  0  0  0  0  0
   -2.3586   -1.2599   -0.1264 C   0  0  0  0  0  0  0  0  0  0  0  0
   -2.3866   -2.4335   -0.4748 O   0  0  0  0  0  0  0  0  0  0  0  0
   -3.6542   -0.5095    0.0321 C   0  0  0  0  0  0  0  0  0  0  0  0
   -3.9292    0.2871    1.1450 C   0  0  0  0  0  0  0  0  0  0  0  0
   -5.1805    0.8773    1.2916 C   0  0  0  0  0  0  0  0  0  0  0  0
   -6.1605    0.6818    0.3225 C   0  0  0  0  0  0  0  0  0  0  0  0
   -5.8942   -0.1225   -0.7829 C   0  0  0  0  0  0  0  0  0  0  0  0
   -4.6508   -0.7281   -0.9192 C   0  0  0  0  0  0  0  0  0  0  0  0
    0.0851    2.7606   -1.1053 C   0  0  0  0  0  0  0  0  0  0  0  0
    3.5476    0.3480    0.0310 C   0  0  0  0  0  0  0  0  0  0  0  0
    4.1102   -0.1371   -1.1509 C   0  0  0  0  0  0  0  0  0  0  0  0
    5.3872   -0.6881   -1.1412 C   0  0  0  0  0  0  0  0  0  0  0  0
    6.1040   -0.7630    0.0502 C   0  0  0  0  0  0  0  0  0  0  0  0
    5.5499   -0.2702    1.2292 C   0  0  0  0  0  0  0  0  0  0  0  0
    4.2801    0.2947    1.2168 C   0  0  0  0  0  0  0  0  0  0  0  0
   -0.4525    0.8575   -1.8938 H   0  0  0  0  0  0  0  0  0  0  0  0
   -0.6226    1.1957    1.1228 H   0  0  0  0  0  0  0  0  0  0  0  0
   -1.9744    1.3194   -0.0152 H   0  0  0  0  0  0  0  0  0  0  0  0
   -0.2457   -2.4239   -0.0525 H   0  0  0  0  0  0  0  0  0  0  0  0
    0.5944   -1.1311   -1.8827 H   0  0  0  0  0  0  0  0  0  0  0  0
    1.9659   -1.4465   -0.8076 H   0  0  0  0  0  0  0  0  0  0  0  0
   -0.0236   -1.7997    2.3202 H   0  0  0  0  0  0  0  0  0  0  0  0
    1.5924   -1.9868    1.6092 H   0  0  0  0  0  0  0  0  0  0  0  0
    0.9407   -0.3696    1.9161 H   0  0  0  0  0  0  0  0  0  0  0  0
   -3.1676    0.4312    1.9084 H   0  0  0  0  0  0  0  0  0  0  0  0
   -5.3914    1.4871    2.1662 H   0  0  0  0  0  0  0  0  0  0  0  0
   -7.1358    1.1487    0.4343 H   0  0  0  0  0  0  0  0  0  0  0  0
   -6.6617   -0.2869   -1.5347 H   0  0  0  0  0  0  0  0  0  0  0  0
   -4.4391   -1.3875   -1.7562 H   0  0  0  0  0  0  0  0  0  0  0  0
    0.8801    3.0062   -1.8164 H   0  0  0  0  0  0  0  0  0  0  0  0
   -0.8573    3.1535   -1.5025 H   0  0  0  0  0  0  0  0  0  0  0  0
    0.3103    3.2517   -0.1589 H   0  0  0  0  0  0  0  0  0  0  0  0
    3.5499   -0.0659   -2.0804 H   0  0  0  0  0  0  0  0  0  0  0  0
    5.8251   -1.0565   -2.0652 H   0  0  0  0  0  0  0  0  0  0  0  0
    7.0992   -1.2001    0.0584 H   0  0  0  0  0  0  0  0  0  0  0  0
    6.1117   -0.3201    2.1583 H   0  0  0  0  0  0  0  0  0  0  0  0
    3.8414    0.7096    2.1202 H   0  0  0  0  0  0  0  0  0  0  0  0
  2  1  2  0  0  0  0
  3  2  1  0  0  0  0
  4 25  1  6  0  0  0
  4  3  1  0  0  0  0
  4  5  1  0  0  0  0
  5  6  1  0  0  0  0
  5 26  1  0  0  0  0
  6  7  1  0  0  0  0
  7 28  1  6  0  0  0
  7  9  1  0  0  0  0
  8 30  1  0  0  0  0
  8  3  1  0  0  0  0
  8  7  1  0  0  0  0
  9 32  1  0  0  0  0
  9 33  1  0  0  0  0
  9 31  1  0  0  0  0
 10 12  1  0  0  0  0
 10  6  1  0  0  0  0
 11 10  2  0  0  0  0
 12 13  2  0  0  0  0
 13 14  1  0  0  0  0
 13 34  1  0  0  0  0
 14 35  1  0  0  0  0
 15 36  1  0  0  0  0
 15 14  2  0  0  0  0
 16 15  1  0  0  0  0
 17 16  2  0  0  0  0
 17 12  1  0  0  0  0
 18  4  1  0  0  0  0
 18 41  1  0  0  0  0
 19  2  1  0  0  0  0
 19 24  2  0  0  0  0
 20 21  2  0  0  0  0
 20 19  1  0  0  0  0
 21 22  1  0  0  0  0
 22 44  1  0  0  0  0
 22 23  2  0  0  0  0
 23 45  1  0  0  0  0
 24 23  1  0  0  0  0
 24 46  1  0  0  0  0
 27  5  1  0  0  0  0
 29  8  1  0  0  0  0
 37 16  1  0  0  0  0
 38 17  1  0  0  0  0
 39 18  1  0  0  0  0
 40 18  1  0  0  0  0
 42 20  1  0  0  0  0
 43 21  1  0  0  0  0
M  END
