omegapdb_2f7p_06.log
 OpenBabel09261812563D

 34 35  0  0  1  0  0  0  0  0999 V2000
   -0.5191   -0.2252    0.2331 C   0  0  1  0  0  0  0  0  0  0  0  0
    0.2548   -0.3173    1.4537 N   0  0  0  0  0  0  0  0  0  0  0  0
    1.4370   -1.1699    1.3429 C   0  0  0  0  0  0  0  0  0  0  0  0
    2.5159   -0.5690    0.4650 C   0  0  0  0  0  0  0  0  0  0  0  0
    3.2833   -1.3856   -0.3650 C   0  0  0  0  0  0  0  0  0  0  0  0
    4.3073   -0.8511   -1.1425 C   0  0  0  0  0  0  0  0  0  0  0  0
    4.5679    0.5146   -1.1063 C   0  0  0  0  0  0  0  0  0  0  0  0
    3.7996    1.3396   -0.2881 C   0  0  0  0  0  0  0  0  0  0  0  0
    2.7831    0.8013    0.4929 C   0  0  0  0  0  0  0  0  0  0  0  0
   -1.3362   -1.4828   -0.1437 C   0  0  1  0  0  0  0  0  0  0  0  0
   -1.8925   -2.0038    1.0416 O   0  0  0  0  0  0  0  0  0  0  0  0
   -2.4613   -0.9525   -1.0857 C   0  0  1  0  0  0  0  0  0  0  0  0
   -3.7012   -1.4989   -0.6893 O   0  0  0  0  0  0  0  0  0  0  0  0
   -2.4420    0.5957   -0.9234 C   0  0  1  0  0  0  0  0  0  0  0  0
   -3.7783    1.0551   -0.8538 O   0  0  0  0  0  0  0  0  0  0  0  0
   -1.6147    0.8377    0.3345 C   0  0  2  0  0  0  0  0  0  0  0  0
   -1.0412    2.5527    0.4445 S   0  0  0  0  0  0  0  0  0  0  0  0
    0.1580    0.0398   -0.5900 H   0  0  0  0  0  0  0  0  0  0  0  0
   -0.3590   -0.7202    2.1591 H   0  0  0  0  0  0  0  0  0  0  0  0
    1.1990   -2.1826    0.9745 H   0  0  0  0  0  0  0  0  0  0  0  0
    1.8332   -1.2964    2.3584 H   0  0  0  0  0  0  0  0  0  0  0  0
    3.0774   -2.4543   -0.4032 H   0  0  0  0  0  0  0  0  0  0  0  0
    4.8972   -1.5028   -1.7826 H   0  0  0  0  0  0  0  0  0  0  0  0
    5.3628    0.9362   -1.7165 H   0  0  0  0  0  0  0  0  0  0  0  0
    3.9930    2.4092   -0.2586 H   0  0  0  0  0  0  0  0  0  0  0  0
    2.1747    1.4421    1.1258 H   0  0  0  0  0  0  0  0  0  0  0  0
   -0.7226   -2.2480   -0.6392 H   0  0  0  0  0  0  0  0  0  0  0  0
   -2.8306   -2.1629    0.8317 H   0  0  0  0  0  0  0  0  0  0  0  0
   -2.2618   -1.2300   -2.1270 H   0  0  0  0  0  0  0  0  0  0  0  0
   -4.3123   -0.7462   -0.6061 H   0  0  0  0  0  0  0  0  0  0  0  0
   -1.9312    1.0455   -1.7874 H   0  0  0  0  0  0  0  0  0  0  0  0
   -3.7817    1.9392   -0.4632 H   0  0  0  0  0  0  0  0  0  0  0  0
   -2.2429    0.6045    1.2026 H   0  0  0  0  0  0  0  0  0  0  0  0
   -0.3264    2.3694    1.5648 H   0  0  0  0  0  0  0  0  0  0  0  0
  1 10  1  6  0  0  0
  1  2  1  0  0  0  0
  2 19  1  0  0  0  0
  3  2  1  0  0  0  0
  3 21  1  0  0  0  0
  4  9  1  0  0  0  0
  4  3  1  0  0  0  0
  5  4  2  0  0  0  0
  6  7  2  0  0  0  0
  6  5  1  0  0  0  0
  7  8  1  0  0  0  0
  8 25  1  0  0  0  0
  8  9  2  0  0  0  0
  9 26  1  0  0  0  0
 10 12  1  6  0  0  0
 10 11  1  0  0  0  0
 12 14  1  1  0  0  0
 12 13  1  0  0  0  0
 13 30  1  0  0  0  0
 14 15  1  0  0  0  0
 14 16  1  1  0  0  0
 15 32  1  0  0  0  0
 16  1  1  6  0  0  0
 16 17  1  0  0  0  0
 16 33  1  0  0  0  0
 17 34  1  0  0  0  0
 18  1  1  0  0  0  0
 20  3  1  0  0  0  0
 22  5  1  0  0  0  0
 23  6  1  0  0  0  0
 24  7  1  0  0  0  0
 27 10  1  0  0  0  0
 28 11  1  0  0  0  0
 29 12  1  0  0  0  0
 31 14  1  0  0  0  0
M  END
