omegapdb_1qxw_09.log
 OpenBabel09261812563D

 36 36  0  0  1  0  0  0  0  0999 V2000
   -4.3826   -1.1950    0.2130 C   0  0  0  0  0  0  0  0  0  0  0  0
   -3.0057   -1.7939    0.2798 C   0  0  0  0  0  0  0  0  0  0  0  0
   -3.2619   -0.5527   -0.5395 C   0  0  0  0  0  0  0  0  0  0  0  0
   -2.7795    0.7130   -0.0468 N   0  0  0  0  0  0  0  0  0  0  0  0
   -1.5454    1.1982   -0.6663 C   0  0  0  0  0  0  0  0  0  0  0  0
   -0.3114    0.5176   -0.0369 C   0  0  0  0  0  0  0  0  0  0  0  0
    0.9596    1.3638   -0.2367 C   0  0  1  0  0  0  0  0  0  0  0  0
    0.7319    2.6363    0.4497 N   0  0  0  0  0  0  0  0  0  0  0  0
    2.2305    0.6185    0.2209 C   0  0  0  0  0  0  0  0  0  0  0  0
    2.9068   -0.2240   -0.8624 C   0  0  0  0  0  0  0  0  0  0  0  0
    4.2238   -0.8615   -0.4114 C   0  0  0  0  0  0  0  0  0  0  0  0
    4.0565   -1.9032    0.6944 C   0  0  0  0  0  0  0  0  0  0  0  0
   -0.0686   -0.7354   -0.6392 O   0  0  0  0  0  0  0  0  0  0  0  0
   -0.5337    0.3665    1.3434 O   0  0  0  0  0  0  0  0  0  0  0  0
   -5.1493   -1.7188   -0.3495 H   0  0  0  0  0  0  0  0  0  0  0  0
   -4.7389   -0.6759    1.0982 H   0  0  0  0  0  0  0  0  0  0  0  0
   -2.8297   -2.7318   -0.2412 H   0  0  0  0  0  0  0  0  0  0  0  0
   -2.4530   -1.6716    1.2078 H   0  0  0  0  0  0  0  0  0  0  0  0
   -3.2543   -0.6810   -1.6257 H   0  0  0  0  0  0  0  0  0  0  0  0
   -3.5086    1.4115   -0.1398 H   0  0  0  0  0  0  0  0  0  0  0  0
   -1.5156    1.0249   -1.7527 H   0  0  0  0  0  0  0  0  0  0  0  0
   -1.4668    2.2712   -0.4739 H   0  0  0  0  0  0  0  0  0  0  0  0
    1.0414    1.5796   -1.3122 H   0  0  0  0  0  0  0  0  0  0  0  0
    0.6300    2.4351    1.4423 H   0  0  0  0  0  0  0  0  0  0  0  0
    1.5545    3.2240    0.3497 H   0  0  0  0  0  0  0  0  0  0  0  0
    1.9802    0.0040    1.0944 H   0  0  0  0  0  0  0  0  0  0  0  0
    2.9514    1.3744    0.5680 H   0  0  0  0  0  0  0  0  0  0  0  0
    2.2131   -1.0018   -1.1987 H   0  0  0  0  0  0  0  0  0  0  0  0
    3.1045    0.4186   -1.7331 H   0  0  0  0  0  0  0  0  0  0  0  0
    4.7014   -1.3356   -1.2790 H   0  0  0  0  0  0  0  0  0  0  0  0
    4.9151   -0.0759   -0.0736 H   0  0  0  0  0  0  0  0  0  0  0  0
    5.0105   -2.3869    0.9314 H   0  0  0  0  0  0  0  0  0  0  0  0
    3.3496   -2.6836    0.3886 H   0  0  0  0  0  0  0  0  0  0  0  0
    3.6742   -1.4559    1.6183 H   0  0  0  0  0  0  0  0  0  0  0  0
   -0.7850   -1.3206   -0.3581 H   0  0  0  0  0  0  0  0  0  0  0  0
   -1.4953    0.4958    1.4562 H   0  0  0  0  0  0  0  0  0  0  0  0
  1  2  1  0  0  0  0
  1 16  1  0  0  0  0
  2 18  1  0  0  0  0
  3  4  1  0  0  0  0
  3  1  1  0  0  0  0
  3  2  1  0  0  0  0
  5 22  1  0  0  0  0
  5  4  1  0  0  0  0
  5  6  1  0  0  0  0
  6 14  1  0  0  0  0
  7 23  1  6  0  0  0
  7  6  1  0  0  0  0
  7  9  1  0  0  0  0
  7  8  1  0  0  0  0
  8 24  1  0  0  0  0
  9 27  1  0  0  0  0
  9 26  1  0  0  0  0
 10 11  1  0  0  0  0
 10  9  1  0  0  0  0
 11 31  1  0  0  0  0
 11 12  1  0  0  0  0
 12 32  1  0  0  0  0
 12 34  1  0  0  0  0
 13 35  1  0  0  0  0
 13  6  1  0  0  0  0
 14 36  1  0  0  0  0
 15  1  1  0  0  0  0
 17  2  1  0  0  0  0
 19  3  1  0  0  0  0
 20  4  1  0  0  0  0
 21  5  1  0  0  0  0
 25  8  1  0  0  0  0
 28 10  1  0  0  0  0
 29 10  1  0  0  0  0
 30 11  1  0  0  0  0
 33 12  1  0  0  0  0
M  END
