omegacsd_FIBREN_06.log
 OpenBabel09261812563D

 39 41  0  0  1  0  0  0  0  0999 V2000
    2.5730   -2.0165    1.0416 N   0  0  0  0  0  0  0  0  0  0  0  0
    1.2707   -2.0152    1.3377 C   0  0  0  0  0  0  0  0  0  0  0  0
    0.3540   -1.1029    0.9658 N   0  0  0  0  0  0  0  0  0  0  0  0
    0.7293   -0.0664    0.2097 C   0  0  0  0  0  0  0  0  0  0  0  0
    2.0838    0.0383   -0.1556 C   0  0  1  0  0  0  0  0  0  0  0  0
    2.9018   -0.9684    0.3026 C   0  0  0  0  0  0  0  0  0  0  0  0
    4.1578   -0.7032   -0.1510 O   0  0  0  0  0  0  0  0  0  0  0  0
    4.0191    0.4623   -0.8630 C   0  0  0  0  0  0  0  0  0  0  0  0
    2.8253    0.9481   -0.9043 N   0  0  0  0  0  0  0  0  0  0  0  0
    5.2531    1.0032   -1.4877 C   0  0  0  0  0  0  0  0  0  0  0  0
   -0.1988    0.8391   -0.1916 N   0  0  0  0  0  0  0  0  0  0  0  0
   -1.5650    0.7766    0.2984 C   0  0  1  0  0  0  0  0  0  0  0  0
   -2.2870    2.0967   -0.0368 C   0  0  0  0  0  0  0  0  0  0  0  0
   -1.5780    3.3022    0.5267 C   0  0  0  0  0  0  0  0  0  0  0  0
   -0.4970    3.6996    0.1499 O   0  0  0  0  0  0  0  0  0  0  0  0
   -2.2594    3.9012    1.5156 O   0  0  0  0  0  0  0  0  0  0  0  0
   -2.3504   -0.3779   -0.3063 C   0  0  0  0  0  0  0  0  0  0  0  0
   -2.2298   -0.6894   -1.6595 C   0  0  0  0  0  0  0  0  0  0  0  0
   -2.9980   -1.7049   -2.2193 C   0  0  0  0  0  0  0  0  0  0  0  0
   -3.8970   -2.4177   -1.4306 C   0  0  0  0  0  0  0  0  0  0  0  0
   -4.0199   -2.1120   -0.0785 C   0  0  0  0  0  0  0  0  0  0  0  0
   -3.2481   -1.0973    0.4790 C   0  0  0  0  0  0  0  0  0  0  0  0
    0.7582   -3.1418    2.1894 C   0  0  0  0  0  0  0  0  0  0  0  0
    5.0095    1.9314   -2.0061 H   0  0  0  0  0  0  0  0  0  0  0  0
    6.0151    1.1999   -0.7273 H   0  0  0  0  0  0  0  0  0  0  0  0
    5.6686    0.2858   -2.2023 H   0  0  0  0  0  0  0  0  0  0  0  0
    0.1497    1.7376   -0.5064 H   0  0  0  0  0  0  0  0  0  0  0  0
   -1.5542    0.6423    1.3891 H   0  0  0  0  0  0  0  0  0  0  0  0
   -2.3252    2.2132   -1.1257 H   0  0  0  0  0  0  0  0  0  0  0  0
   -3.3100    2.0457    0.3413 H   0  0  0  0  0  0  0  0  0  0  0  0
   -1.7115    4.6482    1.8113 H   0  0  0  0  0  0  0  0  0  0  0  0
   -1.5142   -0.1433   -2.2706 H   0  0  0  0  0  0  0  0  0  0  0  0
   -2.8908   -1.9430   -3.2747 H   0  0  0  0  0  0  0  0  0  0  0  0
   -4.4949   -3.2137   -1.8672 H   0  0  0  0  0  0  0  0  0  0  0  0
   -4.7114   -2.6712    0.5468 H   0  0  0  0  0  0  0  0  0  0  0  0
   -3.3334   -0.8711    1.5406 H   0  0  0  0  0  0  0  0  0  0  0  0
    1.5433   -3.8821    2.3516 H   0  0  0  0  0  0  0  0  0  0  0  0
   -0.1062   -3.6106    1.7099 H   0  0  0  0  0  0  0  0  0  0  0  0
    0.4223   -2.7540    3.1571 H   0  0  0  0  0  0  0  0  0  0  0  0
  1  2  2  0  0  0  0
  2 23  1  0  0  0  0
  3  2  1  0  0  0  0
  4  3  2  0  0  0  0
  5  9  1  6  0  0  0
  5  4  1  0  0  0  0
  5  6  1  0  0  0  0
  6  1  2  0  0  0  0
  7  6  1  0  0  0  0
  8  7  1  0  0  0  0
  9  8  2  0  0  0  0
 10  8  1  0  0  0  0
 10 25  1  0  0  0  0
 11  4  1  0  0  0  0
 11 12  1  0  0  0  0
 12 28  1  1  0  0  0
 13 12  1  0  0  0  0
 13 30  1  0  0  0  0
 13 14  1  0  0  0  0
 14 16  1  0  0  0  0
 15 14  2  0  0  0  0
 16 31  1  0  0  0  0
 17 12  1  0  0  0  0
 17 22  2  0  0  0  0
 18 17  1  0  0  0  0
 19 18  2  0  0  0  0
 19 20  1  0  0  0  0
 20 21  2  0  0  0  0
 21 22  1  0  0  0  0
 21 35  1  0  0  0  0
 22 36  1  0  0  0  0
 23 37  1  0  0  0  0
 23 39  1  0  0  0  0
 24 10  1  0  0  0  0
 26 10  1  0  0  0  0
 27 11  1  0  0  0  0
 29 13  1  0  0  0  0
 32 18  1  0  0  0  0
 33 19  1  0  0  0  0
 34 20  1  0  0  0  0
 38 23  1  0  0  0  0
M  RAD  1   5   2
M  END
