omegacsd_CEJTIU_08.log
 OpenBabel09261812563D

 41 42  0  0  0  0  0  0  0  0999 V2000
   -5.3281    1.3025    0.8778 C   0  0  0  0  0  0  0  0  0  0  0  0
   -4.8386    0.4691   -0.2002 N   0  0  0  0  0  0  0  0  0  0  0  0
   -5.8191   -0.2887   -0.9484 C   0  0  0  0  0  0  0  0  0  0  0  0
   -3.5496   -0.0487   -0.0964 C   0  0  0  0  0  0  0  0  0  0  0  0
   -3.1027   -1.0784   -0.9419 C   0  0  0  0  0  0  0  0  0  0  0  0
   -1.8093   -1.5714   -0.8462 C   0  0  0  0  0  0  0  0  0  0  0  0
   -0.9123   -1.0693    0.0933 C   0  0  0  0  0  0  0  0  0  0  0  0
   -1.3382   -0.0499    0.9439 C   0  0  0  0  0  0  0  0  0  0  0  0
   -2.6333    0.4414    0.8509 C   0  0  0  0  0  0  0  0  0  0  0  0
    0.4047   -1.5884    0.1040 N   0  0  0  0  0  0  0  0  0  0  0  0
    1.3298   -1.4573    1.0989 C   0  0  0  0  0  0  0  0  0  0  0  0
    1.1238   -1.0125    2.2079 O   0  0  0  0  0  0  0  0  0  0  0  0
    2.6066   -1.9693    0.7397 N   0  0  0  0  0  0  0  0  0  0  0  0
    3.4573   -1.5601   -0.2864 C   0  0  0  0  0  0  0  0  0  0  0  0
    4.6256   -1.8893   -0.2520 O   0  0  0  0  0  0  0  0  0  0  0  0
    2.9221   -0.6463   -1.3795 C   0  0  0  0  0  0  0  0  0  0  0  0
    2.6846    0.7558   -0.8476 C   0  0  0  0  0  0  0  0  0  0  0  0
    3.7291    1.4427   -0.2240 C   0  0  0  0  0  0  0  0  0  0  0  0
    3.5315    2.7257    0.2721 C   0  0  0  0  0  0  0  0  0  0  0  0
    2.2860    3.3377    0.1520 C   0  0  0  0  0  0  0  0  0  0  0  0
    1.2419    2.6598   -0.4678 C   0  0  0  0  0  0  0  0  0  0  0  0
    1.4412    1.3749   -0.9661 C   0  0  0  0  0  0  0  0  0  0  0  0
   -4.7339    2.2191    0.9626 H   0  0  0  0  0  0  0  0  0  0  0  0
   -6.3555    1.6014    0.6587 H   0  0  0  0  0  0  0  0  0  0  0  0
   -5.3150    0.7935    1.8550 H   0  0  0  0  0  0  0  0  0  0  0  0
   -5.5352   -0.3611   -2.0043 H   0  0  0  0  0  0  0  0  0  0  0  0
   -6.7790    0.2305   -0.9068 H   0  0  0  0  0  0  0  0  0  0  0  0
   -5.9598   -1.3105   -0.5600 H   0  0  0  0  0  0  0  0  0  0  0  0
   -3.7633   -1.5102   -1.6855 H   0  0  0  0  0  0  0  0  0  0  0  0
   -1.5002   -2.3716   -1.5176 H   0  0  0  0  0  0  0  0  0  0  0  0
   -0.6617    0.3457    1.6917 H   0  0  0  0  0  0  0  0  0  0  0  0
   -2.9259    1.2239    1.5422 H   0  0  0  0  0  0  0  0  0  0  0  0
    0.6357   -2.2332   -0.6365 H   0  0  0  0  0  0  0  0  0  0  0  0
    3.1338   -2.2651    1.5535 H   0  0  0  0  0  0  0  0  0  0  0  0
    3.6993   -0.6392   -2.1483 H   0  0  0  0  0  0  0  0  0  0  0  0
    2.0069   -1.0349   -1.8326 H   0  0  0  0  0  0  0  0  0  0  0  0
    4.7003    0.9609   -0.1252 H   0  0  0  0  0  0  0  0  0  0  0  0
    4.3523    3.2487    0.7563 H   0  0  0  0  0  0  0  0  0  0  0  0
    2.1307    4.3395    0.5441 H   0  0  0  0  0  0  0  0  0  0  0  0
    0.2645    3.1260   -0.5627 H   0  0  0  0  0  0  0  0  0  0  0  0
    0.6166    0.8493   -1.4435 H   0  0  0  0  0  0  0  0  0  0  0  0
  1 23  1  0  0  0  0
  1 25  1  0  0  0  0
  2  4  1  0  0  0  0
  2  1  1  0  0  0  0
  3 27  1  0  0  0  0
  3 28  1  0  0  0  0
  3  2  1  0  0  0  0
  4  9  2  0  0  0  0
  5  6  2  0  0  0  0
  5  4  1  0  0  0  0
  6  7  1  0  0  0  0
  7 10  1  0  0  0  0
  7  8  2  0  0  0  0
  8 31  1  0  0  0  0
  9  8  1  0  0  0  0
  9 32  1  0  0  0  0
 10 11  1  0  0  0  0
 11 12  2  0  0  0  0
 13 11  1  0  0  0  0
 13 34  1  0  0  0  0
 14 15  2  0  0  0  0
 14 13  1  0  0  0  0
 16 17  1  0  0  0  0
 16 14  1  0  0  0  0
 17 18  1  0  0  0  0
 18 37  1  0  0  0  0
 18 19  2  0  0  0  0
 19 38  1  0  0  0  0
 20 19  1  0  0  0  0
 20 39  1  0  0  0  0
 21 20  2  0  0  0  0
 22 17  2  0  0  0  0
 22 21  1  0  0  0  0
 24  1  1  0  0  0  0
 26  3  1  0  0  0  0
 29  5  1  0  0  0  0
 30  6  1  0  0  0  0
 33 10  1  0  0  0  0
 35 16  1  0  0  0  0
 36 16  1  0  0  0  0
 40 21  1  0  0  0  0
 41 22  1  0  0  0  0
M  END
