omegacsd_FABSOQ10_02.log
 OpenBabel09261812563D

 45 47  0  0  1  0  0  0  0  0999 V2000
    0.0448    0.4912   -0.0251 S   0  0  0  0  0  0  0  0  0  0  0  0
    1.0524    1.5943   -0.9111 C   0  0  0  0  0  0  0  0  0  0  0  0
    0.5942    2.8696   -0.7903 C   0  0  0  0  0  0  0  0  0  0  0  0
   -0.5772    2.9733    0.0240 C   0  0  0  0  0  0  0  0  0  0  0  0
   -1.0015    1.7697    0.4963 C   0  0  0  0  0  0  0  0  0  0  0  0
   -2.1726    1.5192    1.4232 C   0  0  1  0  0  0  0  0  0  0  0  0
   -2.8807    2.7296    1.6512 O   0  0  0  0  0  0  0  0  0  0  0  0
   -3.1084    0.4206    0.9528 C   0  0  0  0  0  0  0  0  0  0  0  0
   -3.7723   -0.3795    1.8899 C   0  0  0  0  0  0  0  0  0  0  0  0
   -4.6967   -1.3280    1.4927 C   0  0  0  0  0  0  0  0  0  0  0  0
   -4.9877   -1.4966    0.1339 C   0  0  0  0  0  0  0  0  0  0  0  0
   -5.9064   -2.4531   -0.1568 O   0  0  0  0  0  0  0  0  0  0  0  0
   -6.2282   -2.6626   -1.5152 C   0  0  0  0  0  0  0  0  0  0  0  0
   -4.3410   -0.7048   -0.8141 C   0  0  0  0  0  0  0  0  0  0  0  0
   -3.4088    0.2436   -0.3942 C   0  0  0  0  0  0  0  0  0  0  0  0
    2.1993    1.1017   -1.7583 C   0  0  2  0  0  0  0  0  0  0  0  0
    1.7330    0.4353   -2.9235 O   0  0  0  0  0  0  0  0  0  0  0  0
    3.2144    0.2602   -0.9919 C   0  0  0  0  0  0  0  0  0  0  0  0
    3.5233    0.5215    0.3395 C   0  0  0  0  0  0  0  0  0  0  0  0
    4.4882   -0.2179    1.0214 C   0  0  0  0  0  0  0  0  0  0  0  0
    5.1598   -1.2463    0.3612 C   0  0  0  0  0  0  0  0  0  0  0  0
    6.1104   -2.0369    0.9274 O   0  0  0  0  0  0  0  0  0  0  0  0
    6.4415   -1.7967    2.2773 C   0  0  0  0  0  0  0  0  0  0  0  0
    4.8626   -1.5150   -0.9779 C   0  0  0  0  0  0  0  0  0  0  0  0
    3.9061   -0.7666   -1.6426 C   0  0  0  0  0  0  0  0  0  0  0  0
    1.0724    3.7147   -1.2765 H   0  0  0  0  0  0  0  0  0  0  0  0
   -1.0790    3.9021    0.2701 H   0  0  0  0  0  0  0  0  0  0  0  0
   -1.7800    1.2418    2.4092 H   0  0  0  0  0  0  0  0  0  0  0  0
   -3.4514    2.8672    0.8826 H   0  0  0  0  0  0  0  0  0  0  0  0
   -3.5595   -0.2499    2.9493 H   0  0  0  0  0  0  0  0  0  0  0  0
   -5.2114   -1.9567    2.2131 H   0  0  0  0  0  0  0  0  0  0  0  0
   -6.6537   -1.7592   -1.9710 H   0  0  0  0  0  0  0  0  0  0  0  0
   -5.3491   -2.9785   -2.0916 H   0  0  0  0  0  0  0  0  0  0  0  0
   -6.9740   -3.4586   -1.5294 H   0  0  0  0  0  0  0  0  0  0  0  0
   -4.5427   -0.8182   -1.8739 H   0  0  0  0  0  0  0  0  0  0  0  0
   -2.8981    0.8465   -1.1430 H   0  0  0  0  0  0  0  0  0  0  0  0
    2.7027    1.9951   -2.1480 H   0  0  0  0  0  0  0  0  0  0  0  0
    1.2597   -0.3571   -2.6321 H   0  0  0  0  0  0  0  0  0  0  0  0
    3.0022    1.3177    0.8668 H   0  0  0  0  0  0  0  0  0  0  0  0
    4.6965    0.0135    2.0607 H   0  0  0  0  0  0  0  0  0  0  0  0
    6.8438   -0.7851    2.4193 H   0  0  0  0  0  0  0  0  0  0  0  0
    5.5740   -1.9350    2.9357 H   0  0  0  0  0  0  0  0  0  0  0  0
    7.2088   -2.5283    2.5355 H   0  0  0  0  0  0  0  0  0  0  0  0
    5.3990   -2.3176   -1.4757 H   0  0  0  0  0  0  0  0  0  0  0  0
    3.6866   -0.9708   -2.6866 H   0  0  0  0  0  0  0  0  0  0  0  0
  1  5  1  0  0  0  0
  2  3  2  0  0  0  0
  2  1  1  0  0  0  0
  3  4  1  0  0  0  0
  4 27  1  0  0  0  0
  4  5  2  0  0  0  0
  5  6  1  0  0  0  0
  6  7  1  0  0  0  0
  6 28  1  1  0  0  0
  8  6  1  0  0  0  0
  8  9  2  0  0  0  0
  9 30  1  0  0  0  0
 10  9  1  0  0  0  0
 10 31  1  0  0  0  0
 11 10  2  0  0  0  0
 12 11  1  0  0  0  0
 13 12  1  0  0  0  0
 14 15  2  0  0  0  0
 14 11  1  0  0  0  0
 15  8  1  0  0  0  0
 16 37  1  6  0  0  0
 16 18  1  0  0  0  0
 16  2  1  0  0  0  0
 17 38  1  0  0  0  0
 17 16  1  0  0  0  0
 18 19  1  0  0  0  0
 19 39  1  0  0  0  0
 19 20  2  0  0  0  0
 20 40  1  0  0  0  0
 21 22  1  0  0  0  0
 21 20  1  0  0  0  0
 22 23  1  0  0  0  0
 23 41  1  0  0  0  0
 23 43  1  0  0  0  0
 23 42  1  0  0  0  0
 24 21  2  0  0  0  0
 25 18  2  0  0  0  0
 25 24  1  0  0  0  0
 26  3  1  0  0  0  0
 29  7  1  0  0  0  0
 32 13  1  0  0  0  0
 33 13  1  0  0  0  0
 34 13  1  0  0  0  0
 35 14  1  0  0  0  0
 36 15  1  0  0  0  0
 44 24  1  0  0  0  0
 45 25  1  0  0  0  0
M  END
