omegapdb_1m5f_18.log
 OpenBabel09261812563D

 25 25  0  0  1  0  0  0  0  0999 V2000
    0.7475   -2.2001   -1.1241 O   0  0  0  0  0  0  0  0  0  0  0  0
    1.6720   -1.8259   -0.2080 C   0  0  0  0  0  0  0  0  0  0  0  0
    2.3770   -2.6169    0.3600 O   0  0  0  0  0  0  0  0  0  0  0  0
    1.7336   -0.3468   -0.0528 C   0  0  0  0  0  0  0  0  0  0  0  0
    2.8657    0.1687    0.3547 N   0  0  0  0  0  0  0  0  0  0  0  0
    2.6634    1.5175    0.3826 O   0  0  0  0  0  0  0  0  0  0  0  0
    1.4041    1.8025   -0.0046 C   0  0  0  0  0  0  0  0  0  0  0  0
    0.7450    0.6527   -0.3088 C   0  0  0  0  0  0  0  0  0  0  0  0
   -0.6849    0.4937   -0.7191 C   0  0  0  0  0  0  0  0  0  0  0  0
   -1.5806    0.0803    0.4624 C   0  0  2  0  0  0  0  0  0  0  0  0
   -1.1660   -1.1982    1.0039 N   0  0  0  0  0  0  0  0  0  0  0  0
   -3.0431    0.1949    0.0312 C   0  0  0  0  0  0  0  0  0  0  0  0
   -3.5058    1.1312   -0.5761 O   0  0  0  0  0  0  0  0  0  0  0  0
   -3.7924   -0.8561    0.4183 O   0  0  0  0  0  0  0  0  0  0  0  0
    1.0235    3.2409   -0.0103 C   0  0  0  0  0  0  0  0  0  0  0  0
    0.8196   -3.1679   -1.1770 H   0  0  0  0  0  0  0  0  0  0  0  0
   -0.7654   -0.2608   -1.5093 H   0  0  0  0  0  0  0  0  0  0  0  0
   -1.0718    1.4311   -1.1292 H   0  0  0  0  0  0  0  0  0  0  0  0
   -1.4555    0.8340    1.2524 H   0  0  0  0  0  0  0  0  0  0  0  0
   -1.3310   -1.9327    0.3218 H   0  0  0  0  0  0  0  0  0  0  0  0
   -1.7148   -1.4309    1.8254 H   0  0  0  0  0  0  0  0  0  0  0  0
   -4.6953   -0.6648    0.1135 H   0  0  0  0  0  0  0  0  0  0  0  0
    0.0111    3.3641   -0.4027 H   0  0  0  0  0  0  0  0  0  0  0  0
    1.7119    3.8194   -0.6340 H   0  0  0  0  0  0  0  0  0  0  0  0
    1.0569    3.6563    1.0020 H   0  0  0  0  0  0  0  0  0  0  0  0
  1  2  1  0  0  0  0
  2  4  1  0  0  0  0
  2  3  2  0  0  0  0
  4  5  2  0  0  0  0
  5  6  1  0  0  0  0
  7  6  1  0  0  0  0
  8  4  1  0  0  0  0
  8  7  2  0  0  0  0
  9  8  1  0  0  0  0
  9 10  1  0  0  0  0
 10 11  1  0  0  0  0
 10 19  1  1  0  0  0
 11 21  1  0  0  0  0
 12 14  1  0  0  0  0
 12 10  1  0  0  0  0
 13 12  2  0  0  0  0
 15  7  1  0  0  0  0
 15 25  1  0  0  0  0
 16  1  1  0  0  0  0
 17  9  1  0  0  0  0
 18  9  1  0  0  0  0
 20 11  1  0  0  0  0
 22 14  1  0  0  0  0
 23 15  1  0  0  0  0
 24 15  1  0  0  0  0
M  END
