omegapdb_1qxw_04.log
 OpenBabel09261812563D

 36 36  0  0  1  0  0  0  0  0999 V2000
   -4.1479   -1.6018   -0.8979 C   0  0  0  0  0  0  0  0  0  0  0  0
   -4.9582   -0.9168    0.1746 C   0  0  0  0  0  0  0  0  0  0  0  0
   -3.4961   -1.1369    0.3802 C   0  0  0  0  0  0  0  0  0  0  0  0
   -2.6056   -0.0084    0.4111 N   0  0  0  0  0  0  0  0  0  0  0  0
   -1.3069   -0.2658   -0.1993 C   0  0  0  0  0  0  0  0  0  0  0  0
   -0.4421    0.9694    0.0430 C   0  0  0  0  0  0  0  0  0  0  0  0
    1.0069    0.8795   -0.4696 C   0  0  1  0  0  0  0  0  0  0  0  0
    1.5510    2.2346   -0.3246 N   0  0  0  0  0  0  0  0  0  0  0  0
    1.8288   -0.2195    0.2103 C   0  0  0  0  0  0  0  0  0  0  0  0
    3.2669   -0.3139   -0.2974 C   0  0  0  0  0  0  0  0  0  0  0  0
    4.0554   -1.4462    0.3593 C   0  0  0  0  0  0  0  0  0  0  0  0
    5.4974   -1.5288   -0.1344 C   0  0  0  0  0  0  0  0  0  0  0  0
   -0.3603    1.2192    1.4264 O   0  0  0  0  0  0  0  0  0  0  0  0
   -1.0937    2.0200   -0.6268 O   0  0  0  0  0  0  0  0  0  0  0  0
   -3.9362   -1.0347   -1.8015 H   0  0  0  0  0  0  0  0  0  0  0  0
   -4.2939   -2.6665   -1.0582 H   0  0  0  0  0  0  0  0  0  0  0  0
   -5.2915    0.1004   -0.0186 H   0  0  0  0  0  0  0  0  0  0  0  0
   -5.6581   -1.5074    0.7583 H   0  0  0  0  0  0  0  0  0  0  0  0
   -3.2125   -1.9118    1.0911 H   0  0  0  0  0  0  0  0  0  0  0  0
   -3.0226    0.7934   -0.0553 H   0  0  0  0  0  0  0  0  0  0  0  0
   -0.8630   -1.1342    0.2993 H   0  0  0  0  0  0  0  0  0  0  0  0
   -1.3650   -0.4796   -1.2790 H   0  0  0  0  0  0  0  0  0  0  0  0
    0.9467    0.6765   -1.5476 H   0  0  0  0  0  0  0  0  0  0  0  0
    2.4283    2.3325   -0.8241 H   0  0  0  0  0  0  0  0  0  0  0  0
    1.7303    2.4162    0.6603 H   0  0  0  0  0  0  0  0  0  0  0  0
    1.3374   -1.1895    0.0509 H   0  0  0  0  0  0  0  0  0  0  0  0
    1.8199   -0.0417    1.2935 H   0  0  0  0  0  0  0  0  0  0  0  0
    3.2658   -0.4580   -1.3888 H   0  0  0  0  0  0  0  0  0  0  0  0
    3.7910    0.6349   -0.1124 H   0  0  0  0  0  0  0  0  0  0  0  0
    4.0446   -1.3058    1.4488 H   0  0  0  0  0  0  0  0  0  0  0  0
    3.5446   -2.4001    0.1693 H   0  0  0  0  0  0  0  0  0  0  0  0
    6.0412   -2.3465    0.3503 H   0  0  0  0  0  0  0  0  0  0  0  0
    6.0382   -0.5978    0.0735 H   0  0  0  0  0  0  0  0  0  0  0  0
    5.5342   -1.6981   -1.2171 H   0  0  0  0  0  0  0  0  0  0  0  0
   -1.2670    1.0782    1.7507 H   0  0  0  0  0  0  0  0  0  0  0  0
   -0.4227    2.7273   -0.6589 H   0  0  0  0  0  0  0  0  0  0  0  0
  1  2  1  0  0  0  0
  1  3  1  0  0  0  0
  2  3  1  0  0  0  0
  2 18  1  0  0  0  0
  3  4  1  0  0  0  0
  3 19  1  0  0  0  0
  5  6  1  0  0  0  0
  5 21  1  0  0  0  0
  5  4  1  0  0  0  0
  6 13  1  0  0  0  0
  7 23  1  6  0  0  0
  7  8  1  0  0  0  0
  7  6  1  0  0  0  0
  7  9  1  0  0  0  0
  8 25  1  0  0  0  0
  9 27  1  0  0  0  0
 10 29  1  0  0  0  0
 10  9  1  0  0  0  0
 10 11  1  0  0  0  0
 11 30  1  0  0  0  0
 12 33  1  0  0  0  0
 12 32  1  0  0  0  0
 12 11  1  0  0  0  0
 13 35  1  0  0  0  0
 14  6  1  0  0  0  0
 15  1  1  0  0  0  0
 16  1  1  0  0  0  0
 17  2  1  0  0  0  0
 20  4  1  0  0  0  0
 22  5  1  0  0  0  0
 24  8  1  0  0  0  0
 26  9  1  0  0  0  0
 28 10  1  0  0  0  0
 31 11  1  0  0  0  0
 34 12  1  0  0  0  0
 36 14  1  0  0  0  0
M  END
