omegacsd_CUHNEY10_00.log
 OpenBabel09261812563D

 44 47  0  0  1  0  0  0  0  0999 V2000
    4.0585    3.0396   -0.6127 Cl  0  0  0  0  0  0  0  0  0  0  0  0
    2.4093    2.5427   -0.4133 C   0  0  0  0  0  0  0  0  0  0  0  0
    1.9504    1.3895   -1.0312 C   0  0  0  0  0  0  0  0  0  0  0  0
    0.7005    0.9533   -0.8951 N   0  0  0  0  0  0  0  0  0  0  0  0
   -0.1431    1.6558   -0.1440 C   0  0  0  0  0  0  0  0  0  0  0  0
   -1.4347    1.1064   -0.0517 N   0  0  0  0  0  0  0  0  0  0  0  0
   -2.5514    1.7162    0.5212 C   0  0  0  0  0  0  0  0  0  0  0  0
   -2.5995    2.7969    1.0614 O   0  0  0  0  0  0  0  0  0  0  0  0
   -3.6719    0.7486    0.2982 C   0  0  0  0  0  0  0  0  0  0  0  0
   -4.9389    0.8998    0.6623 N   0  0  0  0  0  0  0  0  0  0  0  0
   -5.7081   -0.1374    0.3301 C   0  0  0  0  0  0  0  0  0  0  0  0
   -5.2144   -1.2704   -0.3318 C   0  0  0  0  0  0  0  0  0  0  0  0
   -3.9357   -1.4062   -0.6899 N   0  0  0  0  0  0  0  0  0  0  0  0
   -3.1857   -0.3634   -0.3615 C   0  0  0  0  0  0  0  0  0  0  0  0
   -1.7083   -0.2165   -0.6171 C   0  0  2  0  0  0  0  0  0  0  0  0
   -0.9837   -1.1975    0.0904 O   0  0  0  0  0  0  0  0  0  0  0  0
   -0.1536   -1.9848   -0.6687 C   0  0  0  0  0  0  0  0  0  0  0  0
   -0.2263   -2.0566   -1.8759 O   0  0  0  0  0  0  0  0  0  0  0  0
    0.7018   -2.6921    0.1176 N   0  0  0  0  0  0  0  0  0  0  0  0
    0.9969   -2.3518    1.5043 C   0  0  0  0  0  0  0  0  0  0  0  0
    2.2838   -1.5361    1.5815 C   0  0  0  0  0  0  0  0  0  0  0  0
    3.3832   -2.2431    0.9385 N   0  0  0  0  0  0  0  0  0  0  0  0
    3.0692   -2.5586   -0.4488 C   0  0  0  0  0  0  0  0  0  0  0  0
    1.7969   -3.3949   -0.5376 C   0  0  0  0  0  0  0  0  0  0  0  0
    4.6120   -1.4804    1.0339 C   0  0  0  0  0  0  0  0  0  0  0  0
    0.2216    2.8392    0.5129 C   0  0  0  0  0  0  0  0  0  0  0  0
    1.5261    3.2805    0.3686 C   0  0  0  0  0  0  0  0  0  0  0  0
    2.6123    0.7925   -1.6558 H   0  0  0  0  0  0  0  0  0  0  0  0
   -6.7603   -0.0761    0.5978 H   0  0  0  0  0  0  0  0  0  0  0  0
   -5.8822   -2.0928   -0.5778 H   0  0  0  0  0  0  0  0  0  0  0  0
   -1.4411   -0.2698   -1.6750 H   0  0  0  0  0  0  0  0  0  0  0  0
    0.1596   -1.8044    1.9347 H   0  0  0  0  0  0  0  0  0  0  0  0
    1.1243   -3.2898    2.0579 H   0  0  0  0  0  0  0  0  0  0  0  0
    2.5457   -1.3647    2.6326 H   0  0  0  0  0  0  0  0  0  0  0  0
    2.1085   -0.5461    1.1142 H   0  0  0  0  0  0  0  0  0  0  0  0
    2.9310   -1.6395   -1.0543 H   0  0  0  0  0  0  0  0  0  0  0  0
    3.9099   -3.1154   -0.8795 H   0  0  0  0  0  0  0  0  0  0  0  0
    1.5195   -3.5798   -1.5756 H   0  0  0  0  0  0  0  0  0  0  0  0
    1.9468   -4.3531   -0.0264 H   0  0  0  0  0  0  0  0  0  0  0  0
    5.4353   -2.0447    0.5831 H   0  0  0  0  0  0  0  0  0  0  0  0
    4.8562   -1.3023    2.0866 H   0  0  0  0  0  0  0  0  0  0  0  0
    4.5462   -0.4984    0.5253 H   0  0  0  0  0  0  0  0  0  0  0  0
   -0.5001    3.3839    1.1064 H   0  0  0  0  0  0  0  0  0  0  0  0
    1.8587    4.1895    0.8609 H   0  0  0  0  0  0  0  0  0  0  0  0
  1  2  1  0  0  0  0
  2 27  2  0  0  0  0
  3  4  2  0  0  0  0
  3  2  1  0  0  0  0
  4  5  1  0  0  0  0
  5  6  1  0  0  0  0
  5 26  2  0  0  0  0
  6  7  1  0  0  0  0
  7  8  2  0  0  0  0
  9  7  1  0  0  0  0
  9 10  2  0  0  0  0
 11 29  1  0  0  0  0
 11 10  1  0  0  0  0
 12 11  2  0  0  0  0
 13 14  2  0  0  0  0
 13 12  1  0  0  0  0
 14  9  1  0  0  0  0
 15 31  1  6  0  0  0
 15 14  1  0  0  0  0
 15  6  1  0  0  0  0
 15 16  1  0  0  0  0
 17 16  1  0  0  0  0
 17 19  1  0  0  0  0
 18 17  2  0  0  0  0
 19 20  1  0  0  0  0
 20 21  1  0  0  0  0
 20 32  1  0  0  0  0
 20 33  1  0  0  0  0
 21 34  1  0  0  0  0
 22 25  1  0  0  0  0
 22 21  1  0  0  0  0
 23 22  1  0  0  0  0
 24 23  1  0  0  0  0
 24 39  1  0  0  0  0
 24 19  1  0  0  0  0
 25 41  1  0  0  0  0
 26 43  1  0  0  0  0
 27 26  1  0  0  0  0
 27 44  1  0  0  0  0
 28  3  1  0  0  0  0
 30 12  1  0  0  0  0
 35 21  1  0  0  0  0
 36 23  1  0  0  0  0
 37 23  1  0  0  0  0
 38 24  1  0  0  0  0
 40 25  1  0  0  0  0
 42 25  1  0  0  0  0
M  END
