omegapdb_2f7p_13.log
 OpenBabel09261812563D

 34 35  0  0  1  0  0  0  0  0999 V2000
   -0.9146    0.2100   -0.5452 C   0  0  1  0  0  0  0  0  0  0  0  0
    0.4350    0.2400   -0.0281 N   0  0  0  0  0  0  0  0  0  0  0  0
    1.4245   -0.3479   -0.9248 C   0  0  0  0  0  0  0  0  0  0  0  0
    2.8258   -0.1868   -0.3762 C   0  0  0  0  0  0  0  0  0  0  0  0
    3.2084    1.0038    0.2453 C   0  0  0  0  0  0  0  0  0  0  0  0
    4.5040    1.1647    0.7233 C   0  0  0  0  0  0  0  0  0  0  0  0
    5.4355    0.1382    0.5849 C   0  0  0  0  0  0  0  0  0  0  0  0
    5.0611   -1.0516   -0.0306 C   0  0  0  0  0  0  0  0  0  0  0  0
    3.7616   -1.2120   -0.5045 C   0  0  0  0  0  0  0  0  0  0  0  0
   -1.5871   -1.1805   -0.6345 C   0  0  1  0  0  0  0  0  0  0  0  0
   -1.2414   -2.0306    0.4507 O   0  0  0  0  0  0  0  0  0  0  0  0
   -3.0863   -0.8599   -0.5811 C   0  0  1  0  0  0  0  0  0  0  0  0
   -3.8695   -1.9807   -0.2279 O   0  0  0  0  0  0  0  0  0  0  0  0
   -3.1626    0.2367    0.4998 C   0  0  1  0  0  0  0  0  0  0  0  0
   -3.0859   -0.3953    1.7773 O   0  0  0  0  0  0  0  0  0  0  0  0
   -1.8838    1.0694    0.3175 C   0  0  2  0  0  0  0  0  0  0  0  0
   -2.1491    2.6634   -0.5167 S   0  0  0  0  0  0  0  0  0  0  0  0
   -0.8836    0.6210   -1.5645 H   0  0  0  0  0  0  0  0  0  0  0  0
    0.4585   -0.2753    0.8496 H   0  0  0  0  0  0  0  0  0  0  0  0
    1.2378   -1.4155   -1.1333 H   0  0  0  0  0  0  0  0  0  0  0  0
    1.3465    0.1799   -1.8860 H   0  0  0  0  0  0  0  0  0  0  0  0
    2.4716    1.7950    0.3576 H   0  0  0  0  0  0  0  0  0  0  0  0
    4.7891    2.0963    1.2063 H   0  0  0  0  0  0  0  0  0  0  0  0
    6.4480    0.2646    0.9604 H   0  0  0  0  0  0  0  0  0  0  0  0
    5.7796   -1.8607   -0.1367 H   0  0  0  0  0  0  0  0  0  0  0  0
    3.4697   -2.1485   -0.9770 H   0  0  0  0  0  0  0  0  0  0  0  0
   -1.3013   -1.7247   -1.5397 H   0  0  0  0  0  0  0  0  0  0  0  0
   -1.5904   -1.5998    1.2540 H   0  0  0  0  0  0  0  0  0  0  0  0
   -3.4301   -0.4625   -1.5441 H   0  0  0  0  0  0  0  0  0  0  0  0
   -3.2329   -2.6599    0.0501 H   0  0  0  0  0  0  0  0  0  0  0  0
   -4.0778    0.8375    0.4340 H   0  0  0  0  0  0  0  0  0  0  0  0
   -3.7685   -1.0869    1.7444 H   0  0  0  0  0  0  0  0  0  0  0  0
   -1.4367    1.2540    1.2983 H   0  0  0  0  0  0  0  0  0  0  0  0
   -2.8842    3.2378    0.4484 H   0  0  0  0  0  0  0  0  0  0  0  0
  1 10  1  6  0  0  0
  1  2  1  0  0  0  0
  2 19  1  0  0  0  0
  3  4  1  0  0  0  0
  3  2  1  0  0  0  0
  4  5  1  0  0  0  0
  5 22  1  0  0  0  0
  5  6  2  0  0  0  0
  6 23  1  0  0  0  0
  7  6  1  0  0  0  0
  7 24  1  0  0  0  0
  8  7  2  0  0  0  0
  9  4  2  0  0  0  0
  9  8  1  0  0  0  0
 10 12  1  6  0  0  0
 10 11  1  0  0  0  0
 11 28  1  0  0  0  0
 12 13  1  0  0  0  0
 12 14  1  1  0  0  0
 13 30  1  0  0  0  0
 14 16  1  6  0  0  0
 14 15  1  0  0  0  0
 16  1  1  6  0  0  0
 16 33  1  0  0  0  0
 17 16  1  0  0  0  0
 17 34  1  0  0  0  0
 18  1  1  0  0  0  0
 20  3  1  0  0  0  0
 21  3  1  0  0  0  0
 25  8  1  0  0  0  0
 26  9  1  0  0  0  0
 27 10  1  0  0  0  0
 29 12  1  0  0  0  0
 31 14  1  0  0  0  0
 32 15  1  0  0  0  0
M  END
