omegapdb_1gs5_10.log
 OpenBabel09261812563D

 24 23  0  0  1  0  0  0  0  0999 V2000
   -0.5394    0.0891    0.3540 C   0  0  2  0  0  0  0  0  0  0  0  0
    0.2299    1.3956    0.3447 C   0  0  0  0  0  0  0  0  0  0  0  0
   -0.0688    2.3637   -0.3111 O   0  0  0  0  0  0  0  0  0  0  0  0
    1.2878    1.3624    1.1723 O   0  0  0  0  0  0  0  0  0  0  0  0
    0.1739   -1.0348   -0.4255 C   0  0  0  0  0  0  0  0  0  0  0  0
    1.5416   -1.4368    0.1183 C   0  0  0  0  0  0  0  0  0  0  0  0
    2.6690   -0.5503   -0.3869 C   0  0  0  0  0  0  0  0  0  0  0  0
    2.5588    0.2554   -1.2731 O   0  0  0  0  0  0  0  0  0  0  0  0
    3.8664   -0.7415    0.2084 O   0  0  0  0  0  0  0  0  0  0  0  0
   -1.8439    0.3562   -0.2039 N   0  0  0  0  0  0  0  0  0  0  0  0
   -2.9002   -0.4583    0.0624 C   0  0  0  0  0  0  0  0  0  0  0  0
   -2.7808   -1.4713    0.7373 O   0  0  0  0  0  0  0  0  0  0  0  0
   -4.2298   -0.0203   -0.5146 C   0  0  0  0  0  0  0  0  0  0  0  0
   -0.6607   -0.2373    1.3944 H   0  0  0  0  0  0  0  0  0  0  0  0
    1.7804    2.1878    1.0244 H   0  0  0  0  0  0  0  0  0  0  0  0
    0.2769   -0.7307   -1.4718 H   0  0  0  0  0  0  0  0  0  0  0  0
   -0.5046   -1.8910   -0.3804 H   0  0  0  0  0  0  0  0  0  0  0  0
    1.5454   -1.4374    1.2165 H   0  0  0  0  0  0  0  0  0  0  0  0
    1.7750   -2.4632   -0.1949 H   0  0  0  0  0  0  0  0  0  0  0  0
    3.7875   -1.4068    0.9061 H   0  0  0  0  0  0  0  0  0  0  0  0
   -1.9460    1.2160   -0.7251 H   0  0  0  0  0  0  0  0  0  0  0  0
   -4.8799    0.3023    0.3043 H   0  0  0  0  0  0  0  0  0  0  0  0
   -4.1413    0.7942   -1.2390 H   0  0  0  0  0  0  0  0  0  0  0  0
   -4.7036   -0.8809   -0.9923 H   0  0  0  0  0  0  0  0  0  0  0  0
  1 14  1  1  0  0  0
  2  1  1  0  0  0  0
  2  4  1  0  0  0  0
  3  2  2  0  0  0  0
  5 17  1  0  0  0  0
  5  6  1  0  0  0  0
  5  1  1  0  0  0  0
  6 18  1  0  0  0  0
  7  6  1  0  0  0  0
  7  9  1  0  0  0  0
  8  7  2  0  0  0  0
  9 20  1  0  0  0  0
 10 11  1  0  0  0  0
 10  1  1  0  0  0  0
 11 12  2  0  0  0  0
 13 11  1  0  0  0  0
 13 22  1  0  0  0  0
 15  4  1  0  0  0  0
 16  5  1  0  0  0  0
 19  6  1  0  0  0  0
 21 10  1  0  0  0  0
 23 13  1  0  0  0  0
 24 13  1  0  0  0  0
M  END
