omegapdb_2f7p_11.log
 OpenBabel09261812563D

 34 35  0  0  1  0  0  0  0  0999 V2000
    0.6774   -0.6356    0.1863 C   0  0  1  0  0  0  0  0  0  0  0  0
   -0.0384   -1.3992   -0.8355 N   0  0  0  0  0  0  0  0  0  0  0  0
   -1.1927   -0.7741   -1.4820 C   0  0  0  0  0  0  0  0  0  0  0  0
   -2.3687   -0.4303   -0.5811 C   0  0  0  0  0  0  0  0  0  0  0  0
   -2.8192   -1.3233    0.3934 C   0  0  0  0  0  0  0  0  0  0  0  0
   -3.9236   -1.0205    1.1828 C   0  0  0  0  0  0  0  0  0  0  0  0
   -4.5992    0.1835    1.0042 C   0  0  0  0  0  0  0  0  0  0  0  0
   -4.1616    1.0791    0.0344 C   0  0  0  0  0  0  0  0  0  0  0  0
   -3.0530    0.7733   -0.7496 C   0  0  0  0  0  0  0  0  0  0  0  0
    1.9466   -1.4610    0.5793 C   0  0  1  0  0  0  0  0  0  0  0  0
    2.3761   -2.2554   -0.5105 O   0  0  0  0  0  0  0  0  0  0  0  0
    3.0560   -0.4162    0.9152 C   0  0  1  0  0  0  0  0  0  0  0  0
    4.0985   -0.4594   -0.0339 O   0  0  0  0  0  0  0  0  0  0  0  0
    2.3584    0.9486    0.7860 C   0  0  1  0  0  0  0  0  0  0  0  0
    3.2429    1.9806    0.4578 O   0  0  0  0  0  0  0  0  0  0  0  0
    1.2702    0.7008   -0.2729 C   0  0  2  0  0  0  0  0  0  0  0  0
    0.1270    2.1101   -0.3705 S   0  0  0  0  0  0  0  0  0  0  0  0
    0.0682   -0.4551    1.0863 H   0  0  0  0  0  0  0  0  0  0  0  0
   -0.3413   -2.2735   -0.4107 H   0  0  0  0  0  0  0  0  0  0  0  0
   -1.5260   -1.4746   -2.2580 H   0  0  0  0  0  0  0  0  0  0  0  0
   -0.8521    0.1251   -2.0045 H   0  0  0  0  0  0  0  0  0  0  0  0
   -2.3105   -2.2756    0.5414 H   0  0  0  0  0  0  0  0  0  0  0  0
   -4.2593   -1.7284    1.9366 H   0  0  0  0  0  0  0  0  0  0  0  0
   -5.4619    0.4223    1.6209 H   0  0  0  0  0  0  0  0  0  0  0  0
   -4.6784    2.0246   -0.1083 H   0  0  0  0  0  0  0  0  0  0  0  0
   -2.7052    1.4845   -1.4959 H   0  0  0  0  0  0  0  0  0  0  0  0
    1.7412   -2.1155    1.4351 H   0  0  0  0  0  0  0  0  0  0  0  0
    1.6740   -2.1522   -1.1873 H   0  0  0  0  0  0  0  0  0  0  0  0
    3.4774   -0.5654    1.9160 H   0  0  0  0  0  0  0  0  0  0  0  0
    3.8715   -1.2026   -0.6248 H   0  0  0  0  0  0  0  0  0  0  0  0
    1.8664    1.2194    1.7289 H   0  0  0  0  0  0  0  0  0  0  0  0
    3.9172    1.5540   -0.0991 H   0  0  0  0  0  0  0  0  0  0  0  0
    1.7566    0.5548   -1.2460 H   0  0  0  0  0  0  0  0  0  0  0  0
    1.1163    3.0182   -0.3379 H   0  0  0  0  0  0  0  0  0  0  0  0
  1 16  1  6  0  0  0
  1 18  1  0  0  0  0
  2 19  1  0  0  0  0
  2  1  1  0  0  0  0
  3  2  1  0  0  0  0
  3  4  1  0  0  0  0
  4  5  1  0  0  0  0
  5 22  1  0  0  0  0
  5  6  2  0  0  0  0
  6 23  1  0  0  0  0
  7  6  1  0  0  0  0
  7 24  1  0  0  0  0
  8  7  2  0  0  0  0
  9  4  2  0  0  0  0
  9  8  1  0  0  0  0
 10  1  1  6  0  0  0
 10 27  1  0  0  0  0
 11 10  1  0  0  0  0
 12 10  1  6  0  0  0
 12 29  1  0  0  0  0
 13 12  1  0  0  0  0
 14 16  1  6  0  0  0
 14 12  1  0  0  0  0
 14 31  1  0  0  0  0
 15 14  1  0  0  0  0
 16 33  1  6  0  0  0
 17 34  1  0  0  0  0
 17 16  1  0  0  0  0
 20  3  1  0  0  0  0
 21  3  1  0  0  0  0
 25  8  1  0  0  0  0
 26  9  1  0  0  0  0
 28 11  1  0  0  0  0
 30 13  1  0  0  0  0
 32 15  1  0  0  0  0
M  END
