omegacsd_GALSEM_15.log
 OpenBabel09261812563D

 39 40  0  0  0  0  0  0  0  0999 V2000
    2.9353    0.6776    0.6011 S   0  0  0  0  0  0  0  0  0  0  0  0
    4.2277    1.3100    0.4346 O   0  0  0  0  0  0  0  0  0  0  0  0
    2.5097    0.1919    1.9051 O   0  0  0  0  0  0  0  0  0  0  0  0
    2.7715   -0.6081   -0.4950 N   0  0  0  0  0  0  0  0  0  0  0  0
    3.4699   -1.8157   -0.3267 C   0  0  0  0  0  0  0  0  0  0  0  0
    4.0372   -2.0926    0.7008 O   0  0  0  0  0  0  0  0  0  0  0  0
    3.4038   -2.7206   -1.5448 C   0  0  0  0  0  0  0  0  0  0  0  0
    4.0926   -4.0549   -1.2951 C   0  0  0  0  0  0  0  0  0  0  0  0
    1.6898    1.7427   -0.0522 C   0  0  0  0  0  0  0  0  0  0  0  0
    0.3099    1.4995    0.1579 C   0  0  0  0  0  0  0  0  0  0  0  0
   -0.1172    0.4301    0.8968 N   0  0  0  0  0  0  0  0  0  0  0  0
   -1.4499    0.0151    1.0947 C   0  0  0  0  0  0  0  0  0  0  0  0
   -2.3503   -0.0917    0.0351 C   0  0  0  0  0  0  0  0  0  0  0  0
   -3.6454   -0.5376    0.2741 C   0  0  0  0  0  0  0  0  0  0  0  0
   -4.0515   -0.9087    1.5514 C   0  0  0  0  0  0  0  0  0  0  0  0
   -3.1414   -0.8281    2.5997 C   0  0  0  0  0  0  0  0  0  0  0  0
   -1.8518   -0.3624    2.3783 C   0  0  0  0  0  0  0  0  0  0  0  0
   -4.5923   -0.6875   -0.8860 C   0  0  0  0  0  0  0  0  0  0  0  0
   -4.3522    0.2276   -1.8438 F   0  0  0  0  0  0  0  0  0  0  0  0
   -5.8733   -0.5501   -0.5042 F   0  0  0  0  0  0  0  0  0  0  0  0
   -4.4782   -1.8980   -1.4630 F   0  0  0  0  0  0  0  0  0  0  0  0
   -0.5575    2.4397   -0.4266 C   0  0  0  0  0  0  0  0  0  0  0  0
   -0.0312    3.5026   -1.1378 C   0  0  0  0  0  0  0  0  0  0  0  0
    1.2737    3.7383   -1.3287 N   0  0  0  0  0  0  0  0  0  0  0  0
    2.1025    2.8621   -0.7744 C   0  0  0  0  0  0  0  0  0  0  0  0
    2.5621   -0.3100   -1.4414 H   0  0  0  0  0  0  0  0  0  0  0  0
    3.8692   -2.1936   -2.3889 H   0  0  0  0  0  0  0  0  0  0  0  0
    2.3488   -2.8625   -1.8128 H   0  0  0  0  0  0  0  0  0  0  0  0
    3.6252   -4.5821   -0.4594 H   0  0  0  0  0  0  0  0  0  0  0  0
    5.1454   -3.9059   -1.0426 H   0  0  0  0  0  0  0  0  0  0  0  0
    4.0323   -4.6875   -2.1855 H   0  0  0  0  0  0  0  0  0  0  0  0
    0.5782    0.0238    1.5157 H   0  0  0  0  0  0  0  0  0  0  0  0
   -2.0421    0.1617   -0.9745 H   0  0  0  0  0  0  0  0  0  0  0  0
   -5.0666   -1.2529    1.7217 H   0  0  0  0  0  0  0  0  0  0  0  0
   -3.4425   -1.1161    3.6029 H   0  0  0  0  0  0  0  0  0  0  0  0
   -1.1466   -0.2812    3.2020 H   0  0  0  0  0  0  0  0  0  0  0  0
   -1.6303    2.3576   -0.2973 H   0  0  0  0  0  0  0  0  0  0  0  0
   -0.7106    4.2293   -1.5804 H   0  0  0  0  0  0  0  0  0  0  0  0
    3.1691    3.0396   -0.8985 H   0  0  0  0  0  0  0  0  0  0  0  0
  1  3  2  0  0  0  0
  2  1  2  0  0  0  0
  4  5  1  0  0  0  0
  4  1  1  0  0  0  0
  5  6  2  0  0  0  0
  7  8  1  0  0  0  0
  7  5  1  0  0  0  0
  8 30  1  0  0  0  0
  8 29  1  0  0  0  0
  9 10  1  0  0  0  0
  9  1  1  0  0  0  0
 10 11  1  0  0  0  0
 11 12  1  0  0  0  0
 11 32  1  0  0  0  0
 12 17  2  0  0  0  0
 13 14  2  0  0  0  0
 13 12  1  0  0  0  0
 14 15  1  0  0  0  0
 15 34  1  0  0  0  0
 15 16  2  0  0  0  0
 16 35  1  0  0  0  0
 17 16  1  0  0  0  0
 17 36  1  0  0  0  0
 18 20  1  0  0  0  0
 18 14  1  0  0  0  0
 19 18  1  0  0  0  0
 21 18  1  0  0  0  0
 22 37  1  0  0  0  0
 22 10  2  0  0  0  0
 23 22  1  0  0  0  0
 24 23  2  0  0  0  0
 24 25  1  0  0  0  0
 25  9  2  0  0  0  0
 26  4  1  0  0  0  0
 27  7  1  0  0  0  0
 28  7  1  0  0  0  0
 31  8  1  0  0  0  0
 33 13  1  0  0  0  0
 38 23  1  0  0  0  0
 39 25  1  0  0  0  0
M  END
