omegapdb_1m5f_02.log
 OpenBabel09261812563D

 25 25  0  0  1  0  0  0  0  0999 V2000
   -2.7582   -2.5109    0.1787 O   0  0  0  0  0  0  0  0  0  0  0  0
   -1.5964   -1.8748    0.0116 C   0  0  0  0  0  0  0  0  0  0  0  0
   -0.5335   -2.4424   -0.1081 O   0  0  0  0  0  0  0  0  0  0  0  0
   -1.7331   -0.3962   -0.0149 C   0  0  0  0  0  0  0  0  0  0  0  0
   -2.8593    0.1802    0.3241 N   0  0  0  0  0  0  0  0  0  0  0  0
   -2.6346    1.5164    0.1954 O   0  0  0  0  0  0  0  0  0  0  0  0
   -1.3709    1.7357   -0.2253 C   0  0  0  0  0  0  0  0  0  0  0  0
   -0.7244    0.5483   -0.3832 C   0  0  0  0  0  0  0  0  0  0  0  0
    0.6854    0.3045   -0.8286 C   0  0  0  0  0  0  0  0  0  0  0  0
    1.6155   -0.1147    0.3177 C   0  0  2  0  0  0  0  0  0  0  0  0
    1.6879    0.7964    1.4606 N   0  0  0  0  0  0  0  0  0  0  0  0
    3.0358   -0.3522   -0.2184 C   0  0  0  0  0  0  0  0  0  0  0  0
    3.2644   -0.7186   -1.3430 O   0  0  0  0  0  0  0  0  0  0  0  0
    3.9948   -0.1361    0.6863 O   0  0  0  0  0  0  0  0  0  0  0  0
   -0.9854    3.1588   -0.4277 C   0  0  0  0  0  0  0  0  0  0  0  0
   -2.5482   -3.4599    0.1892 H   0  0  0  0  0  0  0  0  0  0  0  0
    0.7231   -0.4781   -1.5902 H   0  0  0  0  0  0  0  0  0  0  0  0
    1.0827    1.2138   -1.2981 H   0  0  0  0  0  0  0  0  0  0  0  0
    1.2697   -1.0853    0.6933 H   0  0  0  0  0  0  0  0  0  0  0  0
    1.7029    1.7654    1.1501 H   0  0  0  0  0  0  0  0  0  0  0  0
    0.8809    0.6895    2.0659 H   0  0  0  0  0  0  0  0  0  0  0  0
    3.5325    0.2124    1.4799 H   0  0  0  0  0  0  0  0  0  0  0  0
    0.0165    3.2234   -0.8591 H   0  0  0  0  0  0  0  0  0  0  0  0
   -1.6859    3.6530   -1.1073 H   0  0  0  0  0  0  0  0  0  0  0  0
   -0.9952    3.7064    0.5204 H   0  0  0  0  0  0  0  0  0  0  0  0
  1 16  1  0  0  0  0
  2  1  1  0  0  0  0
  3  2  2  0  0  0  0
  4  2  1  0  0  0  0
  4  5  2  0  0  0  0
  6  5  1  0  0  0  0
  7  6  1  0  0  0  0
  8  7  2  0  0  0  0
  8  4  1  0  0  0  0
  9  8  1  0  0  0  0
  9 10  1  0  0  0  0
 10 19  1  1  0  0  0
 10 11  1  0  0  0  0
 11 21  1  0  0  0  0
 12 10  1  0  0  0  0
 12 14  1  0  0  0  0
 13 12  2  0  0  0  0
 14 22  1  0  0  0  0
 15  7  1  0  0  0  0
 15 25  1  0  0  0  0
 17  9  1  0  0  0  0
 18  9  1  0  0  0  0
 20 11  1  0  0  0  0
 23 15  1  0  0  0  0
 24 15  1  0  0  0  0
M  END
