omegapdb_1m5f_00.log
 OpenBabel09261812563D

 25 25  0  0  1  0  0  0  0  0999 V2000
    3.0815   -2.1679   -0.3167 O   0  0  0  0  0  0  0  0  0  0  0  0
    1.8388   -1.6923   -0.2562 C   0  0  0  0  0  0  0  0  0  0  0  0
    0.8551   -2.3977   -0.3559 O   0  0  0  0  0  0  0  0  0  0  0  0
    1.7800   -0.2214   -0.0638 C   0  0  0  0  0  0  0  0  0  0  0  0
    2.8419    0.4330    0.3409 N   0  0  0  0  0  0  0  0  0  0  0  0
    2.4557    1.7349    0.4149 O   0  0  0  0  0  0  0  0  0  0  0  0
    1.1650    1.8589    0.0437 C   0  0  0  0  0  0  0  0  0  0  0  0
    0.6579    0.6361   -0.2753 C   0  0  0  0  0  0  0  0  0  0  0  0
   -0.7290    0.3080   -0.7400 C   0  0  0  0  0  0  0  0  0  0  0  0
   -1.7113    0.0473    0.4118 C   0  0  2  0  0  0  0  0  0  0  0  0
   -1.4306   -1.1425    1.2148 N   0  0  0  0  0  0  0  0  0  0  0  0
   -3.1448   -0.0333   -0.1510 C   0  0  0  0  0  0  0  0  0  0  0  0
   -3.5562    0.7359   -0.9852 O   0  0  0  0  0  0  0  0  0  0  0  0
   -3.8794   -1.0024    0.3861 O   0  0  0  0  0  0  0  0  0  0  0  0
    0.5954    3.2328    0.0519 C   0  0  0  0  0  0  0  0  0  0  0  0
    3.0020   -3.1307   -0.4262 H   0  0  0  0  0  0  0  0  0  0  0  0
   -1.1342    1.1283   -1.3398 H   0  0  0  0  0  0  0  0  0  0  0  0
   -0.7024   -0.5742   -1.3887 H   0  0  0  0  0  0  0  0  0  0  0  0
   -1.7125    0.9217    1.0762 H   0  0  0  0  0  0  0  0  0  0  0  0
   -0.8542   -1.8005    0.6920 H   0  0  0  0  0  0  0  0  0  0  0  0
   -0.9283   -0.9108    2.0640 H   0  0  0  0  0  0  0  0  0  0  0  0
   -3.2633   -1.4694    1.0012 H   0  0  0  0  0  0  0  0  0  0  0  0
   -0.4152    3.2223   -0.3641 H   0  0  0  0  0  0  0  0  0  0  0  0
    1.2132    3.9087   -0.5467 H   0  0  0  0  0  0  0  0  0  0  0  0
    0.5484    3.6314    1.0704 H   0  0  0  0  0  0  0  0  0  0  0  0
  1  2  1  0  0  0  0
  2  4  1  0  0  0  0
  3  2  2  0  0  0  0
  4  5  2  0  0  0  0
  5  6  1  0  0  0  0
  7 15  1  0  0  0  0
  7  6  1  0  0  0  0
  8  4  1  0  0  0  0
  8  7  2  0  0  0  0
  9  8  1  0  0  0  0
  9 10  1  0  0  0  0
 10 19  1  1  0  0  0
 10 11  1  0  0  0  0
 11 21  1  0  0  0  0
 12 14  1  0  0  0  0
 12 10  1  0  0  0  0
 13 12  2  0  0  0  0
 14 22  1  0  0  0  0
 15 25  1  0  0  0  0
 16  1  1  0  0  0  0
 17  9  1  0  0  0  0
 18  9  1  0  0  0  0
 20 11  1  0  0  0  0
 23 15  1  0  0  0  0
 24 15  1  0  0  0  0
M  END
