omegapdb_1v2k_19.log
 OpenBabel09261812563D

 61 65  0  0  0  0  0  0  0  0999 V2000
   -9.8281    1.8710   -0.4763 N   0  0  0  0  0  0  0  0  0  0  0  0
   -8.9482    1.8420   -1.4828 C   0  0  0  0  0  0  0  0  0  0  0  0
   -7.7330    1.1801   -1.4484 C   0  0  0  0  0  0  0  0  0  0  0  0
   -7.3618    0.4735   -0.2920 C   0  0  0  0  0  0  0  0  0  0  0  0
   -8.2801    0.4977    0.7658 C   0  0  0  0  0  0  0  0  0  0  0  0
   -9.4700    1.2027    0.6180 C   0  0  0  0  0  0  0  0  0  0  0  0
   -6.1242   -0.1758   -0.2160 N   0  0  0  0  0  0  0  0  0  0  0  0
   -5.7267   -0.7352    1.0687 C   0  0  0  0  0  0  0  0  0  0  0  0
   -4.2157   -0.9646    1.1137 C   0  0  0  0  0  0  0  0  0  0  0  0
   -3.7801   -1.8649   -0.0470 C   0  0  0  0  0  0  0  0  0  0  0  0
   -4.2462   -1.2713   -1.3838 C   0  0  0  0  0  0  0  0  0  0  0  0
   -5.7525   -1.0322   -1.3424 C   0  0  0  0  0  0  0  0  0  0  0  0
   -2.3240   -2.3372   -0.0567 C   0  0  0  0  0  0  0  0  0  0  0  0
   -2.0962   -3.5340   -0.1855 O   0  0  0  0  0  0  0  0  0  0  0  0
   -1.2852   -1.4544    0.0814 N   0  0  0  0  0  0  0  0  0  0  0  0
    0.0580   -2.0324    0.1141 C   0  0  0  0  0  0  0  0  0  0  0  0
    1.0179   -1.1043    0.8398 C   0  0  0  0  0  0  0  0  0  0  0  0
    1.1092    0.1783    0.1236 N   0  0  0  0  0  0  0  0  0  0  0  0
   -0.1139    0.5746   -0.5903 C   0  0  0  0  0  0  0  0  0  0  0  0
   -1.3583    0.0045    0.0822 C   0  0  0  0  0  0  0  0  0  0  0  0
    1.9226    1.3821    0.9547 S   0  0  0  0  0  0  0  0  0  0  0  0
    1.7278    2.6079    0.1958 O   0  0  0  0  0  0  0  0  0  0  0  0
    1.5967    1.3311    2.3750 O   0  0  0  0  0  0  0  0  0  0  0  0
    3.6142    0.8641    0.7867 C   0  0  0  0  0  0  0  0  0  0  0  0
    4.2829    1.1619   -0.3704 C   0  0  0  0  0  0  0  0  0  0  0  0
    5.6299    0.7529   -0.5287 C   0  0  0  0  0  0  0  0  0  0  0  0
    6.2643    0.0409    0.5229 C   0  0  0  0  0  0  0  0  0  0  0  0
    5.5375   -0.2353    1.7124 C   0  0  0  0  0  0  0  0  0  0  0  0
    4.2375    0.1697    1.8505 C   0  0  0  0  0  0  0  0  0  0  0  0
    7.6138   -0.3730    0.3637 C   0  0  0  0  0  0  0  0  0  0  0  0
    8.2804   -0.0828   -0.7934 C   0  0  0  0  0  0  0  0  0  0  0  0
    7.6604    0.6290   -1.8504 C   0  0  0  0  0  0  0  0  0  0  0  0
    6.3635    1.0365   -1.7132 C   0  0  0  0  0  0  0  0  0  0  0  0
    9.9304   -0.5884   -0.9948 Cl  0  0  0  0  0  0  0  0  0  0  0  0
   -9.2307    2.3955   -2.3777 H   0  0  0  0  0  0  0  0  0  0  0  0
   -7.0675    1.2453   -2.3034 H   0  0  0  0  0  0  0  0  0  0  0  0
   -8.0989   -0.0358    1.6922 H   0  0  0  0  0  0  0  0  0  0  0  0
  -10.1847    1.2169    1.4404 H   0  0  0  0  0  0  0  0  0  0  0  0
   -5.9978   -0.0270    1.8559 H   0  0  0  0  0  0  0  0  0  0  0  0
   -6.2566   -1.6842    1.2740 H   0  0  0  0  0  0  0  0  0  0  0  0
   -3.7272    0.0135    1.0738 H   0  0  0  0  0  0  0  0  0  0  0  0
   -3.9519   -1.4253    2.0730 H   0  0  0  0  0  0  0  0  0  0  0  0
   -4.3135   -2.8168    0.0678 H   0  0  0  0  0  0  0  0  0  0  0  0
   -4.0099   -1.9629   -2.2006 H   0  0  0  0  0  0  0  0  0  0  0  0
   -3.7475   -0.3188   -1.5999 H   0  0  0  0  0  0  0  0  0  0  0  0
   -6.2727   -2.0042   -1.2633 H   0  0  0  0  0  0  0  0  0  0  0  0
   -6.0794   -0.5696   -2.2747 H   0  0  0  0  0  0  0  0  0  0  0  0
    0.4180   -2.2391   -0.9028 H   0  0  0  0  0  0  0  0  0  0  0  0
    0.0037   -2.9907    0.6336 H   0  0  0  0  0  0  0  0  0  0  0  0
    0.6782   -0.9525    1.8730 H   0  0  0  0  0  0  0  0  0  0  0  0
    2.0116   -1.5652    0.8730 H   0  0  0  0  0  0  0  0  0  0  0  0
   -0.0520    0.2056   -1.6210 H   0  0  0  0  0  0  0  0  0  0  0  0
   -0.1658    1.6641   -0.6312 H   0  0  0  0  0  0  0  0  0  0  0  0
   -1.4339    0.4022    1.1042 H   0  0  0  0  0  0  0  0  0  0  0  0
   -2.2360    0.3390   -0.4728 H   0  0  0  0  0  0  0  0  0  0  0  0
    3.7857    1.7174   -1.1618 H   0  0  0  0  0  0  0  0  0  0  0  0
    6.0339   -0.7671    2.5204 H   0  0  0  0  0  0  0  0  0  0  0  0
    3.6797   -0.0131    2.7639 H   0  0  0  0  0  0  0  0  0  0  0  0
    8.1092   -0.9171    1.1630 H   0  0  0  0  0  0  0  0  0  0  0  0
    8.2251    0.8404   -2.7529 H   0  0  0  0  0  0  0  0  0  0  0  0
    5.8756    1.5841   -2.5159 H   0  0  0  0  0  0  0  0  0  0  0  0
  1  6  2  0  0  0  0
  2  3  2  0  0  0  0
  2  1  1  0  0  0  0
  3  4  1  0  0  0  0
  4  7  1  0  0  0  0
  4  5  2  0  0  0  0
  5 37  1  0  0  0  0
  6  5  1  0  0  0  0
  6 38  1  0  0  0  0
  7  8  1  0  0  0  0
  8  9  1  0  0  0  0
  8 40  1  0  0  0  0
  8 39  1  0  0  0  0
  9 42  1  0  0  0  0
 10 43  1  0  0  0  0
 10  9  1  0  0  0  0
 11 12  1  0  0  0  0
 11 10  1  0  0  0  0
 12 46  1  0  0  0  0
 12  7  1  0  0  0  0
 13 10  1  0  0  0  0
 13 15  1  0  0  0  0
 14 13  2  0  0  0  0
 15 20  1  0  0  0  0
 15 16  1  0  0  0  0
 16 49  1  0  0  0  0
 16 17  1  0  0  0  0
 17 51  1  0  0  0  0
 17 50  1  0  0  0  0
 18 17  1  0  0  0  0
 18 21  1  0  0  0  0
 19 20  1  0  0  0  0
 19 18  1  0  0  0  0
 20 54  1  0  0  0  0
 21 23  2  0  0  0  0
 22 21  2  0  0  0  0
 24 21  1  0  0  0  0
 24 29  2  0  0  0  0
 25 24  1  0  0  0  0
 26 25  2  0  0  0  0
 26 27  1  0  0  0  0
 27 28  2  0  0  0  0
 28 29  1  0  0  0  0
 28 57  1  0  0  0  0
 29 58  1  0  0  0  0
 30 27  1  0  0  0  0
 30 59  1  0  0  0  0
 31 30  2  0  0  0  0
 32 33  2  0  0  0  0
 32 31  1  0  0  0  0
 33 26  1  0  0  0  0
 34 31  1  0  0  0  0
 35  2  1  0  0  0  0
 36  3  1  0  0  0  0
 41  9  1  0  0  0  0
 44 11  1  0  0  0  0
 45 11  1  0  0  0  0
 47 12  1  0  0  0  0
 48 16  1  0  0  0  0
 52 19  1  0  0  0  0
 53 19  1  0  0  0  0
 55 20  1  0  0  0  0
 56 25  1  0  0  0  0
 60 32  1  0  0  0  0
 61 33  1  0  0  0  0
M  END
