omegacsd_DIAVER_00.log
 OpenBabel09261812563D

 35 36  0  0  0  0  0  0  0  0999 V2000
    4.2428    0.4520   -1.0203 N   0  0  0  0  0  0  0  0  0  0  0  0
    4.4013    0.3997    0.3060 C   0  0  0  0  0  0  0  0  0  0  0  0
    3.5188   -0.0515    1.2079 N   0  0  0  0  0  0  0  0  0  0  0  0
    2.3726   -0.5299    0.7268 C   0  0  0  0  0  0  0  0  0  0  0  0
    2.0866   -0.5623   -0.6592 C   0  0  0  0  0  0  0  0  0  0  0  0
    3.0809   -0.0388   -1.4617 C   0  0  0  0  0  0  0  0  0  0  0  0
    0.8115   -1.1494   -1.2045 C   0  0  0  0  0  0  0  0  0  0  0  0
   -0.4606   -0.4314   -0.7792 C   0  0  0  0  0  0  0  0  0  0  0  0
   -1.5954   -1.1760   -0.4161 C   0  0  0  0  0  0  0  0  0  0  0  0
   -2.7799   -0.5524   -0.0499 C   0  0  0  0  0  0  0  0  0  0  0  0
   -2.8490    0.8597   -0.0360 C   0  0  0  0  0  0  0  0  0  0  0  0
   -1.7268    1.5941   -0.3884 C   0  0  0  0  0  0  0  0  0  0  0  0
   -0.5396    0.9513   -0.7549 C   0  0  0  0  0  0  0  0  0  0  0  0
   -4.0441    1.3826    0.3400 O   0  0  0  0  0  0  0  0  0  0  0  0
   -4.1508    2.7876    0.3767 C   0  0  0  0  0  0  0  0  0  0  0  0
   -3.9180   -1.1946    0.3152 O   0  0  0  0  0  0  0  0  0  0  0  0
   -3.8971   -2.6042    0.3144 C   0  0  0  0  0  0  0  0  0  0  0  0
    1.4859   -1.0334    1.6410 N   0  0  0  0  0  0  0  0  0  0  0  0
    5.5999    0.8360    0.7992 N   0  0  0  0  0  0  0  0  0  0  0  0
    2.9377   -0.0129   -2.5438 H   0  0  0  0  0  0  0  0  0  0  0  0
    0.7346   -2.2042   -0.9050 H   0  0  0  0  0  0  0  0  0  0  0  0
    0.8741   -1.1517   -2.3010 H   0  0  0  0  0  0  0  0  0  0  0  0
   -1.5358   -2.2609   -0.4330 H   0  0  0  0  0  0  0  0  0  0  0  0
   -1.7592    2.6787   -0.3798 H   0  0  0  0  0  0  0  0  0  0  0  0
    0.3311    1.5470   -1.0183 H   0  0  0  0  0  0  0  0  0  0  0  0
   -3.4429    3.2266    1.0924 H   0  0  0  0  0  0  0  0  0  0  0  0
   -3.9826    3.2315   -0.6135 H   0  0  0  0  0  0  0  0  0  0  0  0
   -5.1706    3.0034    0.6994 H   0  0  0  0  0  0  0  0  0  0  0  0
   -4.8935   -2.9198    0.6275 H   0  0  0  0  0  0  0  0  0  0  0  0
   -3.1538   -2.9966    1.0213 H   0  0  0  0  0  0  0  0  0  0  0  0
   -3.6875   -3.0042   -0.6865 H   0  0  0  0  0  0  0  0  0  0  0  0
    1.7019   -0.7973    2.5990 H   0  0  0  0  0  0  0  0  0  0  0  0
    0.5049   -1.0074    1.3995 H   0  0  0  0  0  0  0  0  0  0  0  0
    5.6308    1.0505    1.7829 H   0  0  0  0  0  0  0  0  0  0  0  0
    6.1536    1.4047    0.1786 H   0  0  0  0  0  0  0  0  0  0  0  0
  1  2  2  0  0  0  0
  2 19  1  0  0  0  0
  2  3  1  0  0  0  0
  4  3  2  0  0  0  0
  4 18  1  0  0  0  0
  5  4  1  0  0  0  0
  6  1  1  0  0  0  0
  6  5  2  0  0  0  0
  7 21  1  0  0  0  0
  7  8  1  0  0  0  0
  7  5  1  0  0  0  0
  8 13  2  0  0  0  0
  8  9  1  0  0  0  0
  9 10  2  0  0  0  0
 10 11  1  0  0  0  0
 10 16  1  0  0  0  0
 11 14  1  0  0  0  0
 12 24  1  0  0  0  0
 12 11  2  0  0  0  0
 13 12  1  0  0  0  0
 14 15  1  0  0  0  0
 15 28  1  0  0  0  0
 15 26  1  0  0  0  0
 17 16  1  0  0  0  0
 17 29  1  0  0  0  0
 17 30  1  0  0  0  0
 18 32  1  0  0  0  0
 19 34  1  0  0  0  0
 20  6  1  0  0  0  0
 22  7  1  0  0  0  0
 23  9  1  0  0  0  0
 25 13  1  0  0  0  0
 27 15  1  0  0  0  0
 31 17  1  0  0  0  0
 33 18  1  0  0  0  0
 35 19  1  0  0  0  0
M  END
