omegapdb_1z1r_17.log
 OpenBabel09261812563D

 66 68  0  0  1  0  0  0  0  0999 V2000
   -0.2428   -2.1386    0.1470 C   0  0  2  0  0  0  0  0  0  0  0  0
   -1.1953   -3.1289   -0.5690 C   0  0  0  0  0  0  0  0  0  0  0  0
   -2.6175   -2.6184   -0.5843 C   0  0  0  0  0  0  0  0  0  0  0  0
   -3.2334   -2.2839   -1.7897 C   0  0  0  0  0  0  0  0  0  0  0  0
   -4.4450   -1.5996   -1.8148 C   0  0  0  0  0  0  0  0  0  0  0  0
   -5.0532   -1.2286   -0.6203 C   0  0  0  0  0  0  0  0  0  0  0  0
   -4.4974   -1.6339    0.5939 C   0  0  0  0  0  0  0  0  0  0  0  0
   -3.2930   -2.3261    0.6045 C   0  0  0  0  0  0  0  0  0  0  0  0
   -6.1635   -0.4213   -0.6699 O   0  0  0  0  0  0  0  0  0  0  0  0
   -5.9518    0.8627   -0.0702 C   0  0  0  0  0  0  0  0  0  0  0  0
   -4.8878    1.6594   -0.8310 C   0  0  0  0  0  0  0  0  0  0  0  0
   -4.2779    2.8299   -0.0415 C   0  0  0  0  0  0  0  0  0  0  0  0
   -3.7801    2.4146    1.3360 C   0  0  0  0  0  0  0  0  0  0  0  0
   -4.4895    2.5482    2.3215 O   0  0  0  0  0  0  0  0  0  0  0  0
   -2.5292    1.8721    1.4550 N   0  0  0  0  0  0  0  0  0  0  0  0
   -1.6292    1.4118    0.4242 C   0  0  2  0  0  0  0  0  0  0  0  0
   -1.0979    0.0379    0.8749 C   0  0  0  0  0  0  0  0  0  0  0  0
   -1.0983   -0.2696    2.0594 O   0  0  0  0  0  0  0  0  0  0  0  0
   -0.6024   -0.7546   -0.1079 N   0  0  0  0  0  0  0  0  0  0  0  0
   -0.4508    2.3790    0.2117 C   0  0  0  0  0  0  0  0  0  0  0  0
    0.3891    1.9807   -0.9936 C   0  0  0  0  0  0  0  0  0  0  0  0
   -0.1104    1.4514   -1.9807 O   0  0  0  0  0  0  0  0  0  0  0  0
    1.7109    2.2529   -0.9084 N   0  0  0  0  0  0  0  0  0  0  0  0
    1.2215   -2.3869   -0.2359 C   0  0  2  0  0  0  0  0  0  0  0  0
    1.5885   -3.7418   -0.0209 O   0  0  0  0  0  0  0  0  0  0  0  0
    2.1848   -1.4594    0.5003 C   0  0  0  0  0  0  0  0  0  0  0  0
    3.5347   -1.7642    0.0331 N   0  0  0  0  0  0  0  0  0  0  0  0
    4.8045   -1.0056    0.7871 S   0  0  0  0  0  0  0  0  0  0  0  0
    5.9817   -1.7781    0.4286 O   0  0  0  0  0  0  0  0  0  0  0  0
    4.4952   -0.7196    2.1816 O   0  0  0  0  0  0  0  0  0  0  0  0
    4.8465    0.5636   -0.0557 C   0  0  0  0  0  0  0  0  0  0  0  0
    4.9523    0.5987   -1.4442 C   0  0  0  0  0  0  0  0  0  0  0  0
    5.0479    1.8302   -2.0832 C   0  0  0  0  0  0  0  0  0  0  0  0
    5.0459    3.0083   -1.3344 C   0  0  0  0  0  0  0  0  0  0  0  0
    4.9447    2.9590    0.0537 C   0  0  0  0  0  0  0  0  0  0  0  0
    4.8431    1.7293    0.7020 C   0  0  0  0  0  0  0  0  0  0  0  0
   -0.3467   -2.2588    1.2319 H   0  0  0  0  0  0  0  0  0  0  0  0
   -0.8505   -3.2784   -1.6004 H   0  0  0  0  0  0  0  0  0  0  0  0
   -1.1124   -4.1041   -0.0770 H   0  0  0  0  0  0  0  0  0  0  0  0
   -2.7352   -2.5167   -2.7293 H   0  0  0  0  0  0  0  0  0  0  0  0
   -4.9008   -1.2922   -2.7518 H   0  0  0  0  0  0  0  0  0  0  0  0
   -4.9903   -1.3750    1.5273 H   0  0  0  0  0  0  0  0  0  0  0  0
   -2.8429   -2.5832    1.5615 H   0  0  0  0  0  0  0  0  0  0  0  0
   -6.9239    1.3614   -0.1028 H   0  0  0  0  0  0  0  0  0  0  0  0
   -5.6769    0.7466    0.9847 H   0  0  0  0  0  0  0  0  0  0  0  0
   -4.0911    0.9661   -1.1214 H   0  0  0  0  0  0  0  0  0  0  0  0
   -5.3134    2.0397   -1.7665 H   0  0  0  0  0  0  0  0  0  0  0  0
   -3.4767    3.2847   -0.6370 H   0  0  0  0  0  0  0  0  0  0  0  0
   -5.0330    3.5991    0.1436 H   0  0  0  0  0  0  0  0  0  0  0  0
   -2.3336    1.4838    2.3726 H   0  0  0  0  0  0  0  0  0  0  0  0
   -2.1490    1.3012   -0.5305 H   0  0  0  0  0  0  0  0  0  0  0  0
   -0.6932   -0.4294   -1.0645 H   0  0  0  0  0  0  0  0  0  0  0  0
    0.1500    2.4375    1.1271 H   0  0  0  0  0  0  0  0  0  0  0  0
   -0.8569    3.3810    0.0264 H   0  0  0  0  0  0  0  0  0  0  0  0
    2.1390    2.6520   -0.0879 H   0  0  0  0  0  0  0  0  0  0  0  0
    2.3122    2.0117   -1.6839 H   0  0  0  0  0  0  0  0  0  0  0  0
    1.3439   -2.2319   -1.3153 H   0  0  0  0  0  0  0  0  0  0  0  0
    1.4377   -3.9435    0.9142 H   0  0  0  0  0  0  0  0  0  0  0  0
    1.9569   -0.4145    0.2646 H   0  0  0  0  0  0  0  0  0  0  0  0
    2.0845   -1.5900    1.5885 H   0  0  0  0  0  0  0  0  0  0  0  0
    3.7162   -2.7658   -0.0133 H   0  0  0  0  0  0  0  0  0  0  0  0
    4.9572   -0.3290   -2.0096 H   0  0  0  0  0  0  0  0  0  0  0  0
    5.1378    1.8725   -3.1653 H   0  0  0  0  0  0  0  0  0  0  0  0
    5.1313    3.9679   -1.8374 H   0  0  0  0  0  0  0  0  0  0  0  0
    4.9570    3.8776    0.6346 H   0  0  0  0  0  0  0  0  0  0  0  0
    4.7674    1.6582    1.7832 H   0  0  0  0  0  0  0  0  0  0  0  0
  1 37  1  1  0  0  0
  2 39  1  0  0  0  0
  2  1  1  0  0  0  0
  3  2  1  0  0  0  0
  3  8  2  0  0  0  0
  4  3  1  0  0  0  0
  5  4  2  0  0  0  0
  5  6  1  0  0  0  0
  6  7  2  0  0  0  0
  7  8  1  0  0  0  0
  7 42  1  0  0  0  0
  8 43  1  0  0  0  0
  9  6  1  0  0  0  0
  9 10  1  0  0  0  0
 10 45  1  0  0  0  0
 11 10  1  0  0  0  0
 11 12  1  0  0  0  0
 12 49  1  0  0  0  0
 12 13  1  0  0  0  0
 13 15  1  0  0  0  0
 13 14  2  0  0  0  0
 15 50  1  0  0  0  0
 16 51  1  6  0  0  0
 16 17  1  0  0  0  0
 16 15  1  0  0  0  0
 17 18  2  0  0  0  0
 19  1  1  0  0  0  0
 19 17  1  0  0  0  0
 20 16  1  0  0  0  0
 20 53  1  0  0  0  0
 21 23  1  0  0  0  0
 21 20  1  0  0  0  0
 22 21  2  0  0  0  0
 23 55  1  0  0  0  0
 24 57  1  6  0  0  0
 24 25  1  0  0  0  0
 24  1  1  0  0  0  0
 24 26  1  0  0  0  0
 25 58  1  0  0  0  0
 26 60  1  0  0  0  0
 27 26  1  0  0  0  0
 27 28  1  0  0  0  0
 28 30  2  0  0  0  0
 29 28  2  0  0  0  0
 31 36  2  0  0  0  0
 31 28  1  0  0  0  0
 32 31  1  0  0  0  0
 33 32  2  0  0  0  0
 33 34  1  0  0  0  0
 34 35  2  0  0  0  0
 35 65  1  0  0  0  0
 35 36  1  0  0  0  0
 36 66  1  0  0  0  0
 38  2  1  0  0  0  0
 40  4  1  0  0  0  0
 41  5  1  0  0  0  0
 44 10  1  0  0  0  0
 46 11  1  0  0  0  0
 47 11  1  0  0  0  0
 48 12  1  0  0  0  0
 52 19  1  0  0  0  0
 54 20  1  0  0  0  0
 56 23  1  0  0  0  0
 59 26  1  0  0  0  0
 61 27  1  0  0  0  0
 62 32  1  0  0  0  0
 63 33  1  0  0  0  0
 64 34  1  0  0  0  0
M  END
