omegapdb_2f7p_12.log
 OpenBabel09261812563D

 34 35  0  0  1  0  0  0  0  0999 V2000
   -0.9132    0.1264   -0.5468 C   0  0  1  0  0  0  0  0  0  0  0  0
    0.4416    0.2136   -0.0481 N   0  0  0  0  0  0  0  0  0  0  0  0
    1.4370   -0.4059   -0.9170 C   0  0  0  0  0  0  0  0  0  0  0  0
    2.8373   -0.2324   -0.3688 C   0  0  0  0  0  0  0  0  0  0  0  0
    3.7845   -1.2449   -0.5179 C   0  0  0  0  0  0  0  0  0  0  0  0
    5.0838   -1.0781   -0.0470 C   0  0  0  0  0  0  0  0  0  0  0  0
    5.4479    0.1048    0.5883 C   0  0  0  0  0  0  0  0  0  0  0  0
    4.5059    1.1179    0.7478 C   0  0  0  0  0  0  0  0  0  0  0  0
    3.2101    0.9511    0.2710 C   0  0  0  0  0  0  0  0  0  0  0  0
   -1.5939   -1.2554   -0.5044 C   0  0  1  0  0  0  0  0  0  0  0  0
   -1.3716   -1.9437    0.7198 O   0  0  0  0  0  0  0  0  0  0  0  0
   -3.0784   -0.9000   -0.6345 C   0  0  1  0  0  0  0  0  0  0  0  0
   -3.9309   -1.9565   -0.2475 O   0  0  0  0  0  0  0  0  0  0  0  0
   -3.2259    0.3167    0.3117 C   0  0  1  0  0  0  0  0  0  0  0  0
   -3.3892   -0.1747    1.6386 O   0  0  0  0  0  0  0  0  0  0  0  0
   -1.8692    1.0434    0.2545 C   0  0  2  0  0  0  0  0  0  0  0  0
   -2.0254    2.7136   -0.4466 S   0  0  0  0  0  0  0  0  0  0  0  0
   -0.9092    0.4572   -1.5942 H   0  0  0  0  0  0  0  0  0  0  0  0
    0.4782   -0.2475    0.8597 H   0  0  0  0  0  0  0  0  0  0  0  0
    1.3644    0.0857   -1.8976 H   0  0  0  0  0  0  0  0  0  0  0  0
    1.2502   -1.4799   -1.0902 H   0  0  0  0  0  0  0  0  0  0  0  0
    3.5014   -2.1767   -1.0047 H   0  0  0  0  0  0  0  0  0  0  0  0
    5.8105   -1.8775   -0.1700 H   0  0  0  0  0  0  0  0  0  0  0  0
    6.4601    0.2354    0.9627 H   0  0  0  0  0  0  0  0  0  0  0  0
    4.7820    2.0438    1.2468 H   0  0  0  0  0  0  0  0  0  0  0  0
    2.4670    1.7337    0.3999 H   0  0  0  0  0  0  0  0  0  0  0  0
   -1.2439   -1.9275   -1.2940 H   0  0  0  0  0  0  0  0  0  0  0  0
   -1.8136   -1.4232    1.4171 H   0  0  0  0  0  0  0  0  0  0  0  0
   -3.3134   -0.6076   -1.6650 H   0  0  0  0  0  0  0  0  0  0  0  0
   -3.3557   -2.6018    0.1954 H   0  0  0  0  0  0  0  0  0  0  0  0
   -4.0736    0.9605    0.0425 H   0  0  0  0  0  0  0  0  0  0  0  0
   -4.0971   -0.8374    1.5676 H   0  0  0  0  0  0  0  0  0  0  0  0
   -1.5088    1.1400    1.2834 H   0  0  0  0  0  0  0  0  0  0  0  0
   -0.7036    2.9466   -0.4860 H   0  0  0  0  0  0  0  0  0  0  0  0
  1 10  1  1  0  0  0
  1  2  1  0  0  0  0
  2 19  1  0  0  0  0
  3  4  1  0  0  0  0
  3  2  1  0  0  0  0
  4  9  1  0  0  0  0
  5  4  2  0  0  0  0
  5  6  1  0  0  0  0
  6  7  2  0  0  0  0
  7  8  1  0  0  0  0
  7 24  1  0  0  0  0
  8 25  1  0  0  0  0
  9 26  1  0  0  0  0
  9  8  2  0  0  0  0
 10 12  1  6  0  0  0
 10 11  1  0  0  0  0
 11 28  1  0  0  0  0
 12 13  1  0  0  0  0
 12 14  1  1  0  0  0
 13 30  1  0  0  0  0
 14 16  1  6  0  0  0
 14 15  1  0  0  0  0
 16  1  1  6  0  0  0
 16 33  1  0  0  0  0
 17 16  1  0  0  0  0
 18  1  1  0  0  0  0
 20  3  1  0  0  0  0
 21  3  1  0  0  0  0
 22  5  1  0  0  0  0
 23  6  1  0  0  0  0
 27 10  1  0  0  0  0
 29 12  1  0  0  0  0
 31 14  1  0  0  0  0
 32 15  1  0  0  0  0
 34 17  1  0  0  0  0
M  END
