omegapdb_2f7p_04.log
 OpenBabel09261812563D

 34 35  0  0  1  0  0  0  0  0999 V2000
   -0.9641    0.1934   -0.6701 C   0  0  1  0  0  0  0  0  0  0  0  0
    0.3813    0.2327   -0.1201 N   0  0  0  0  0  0  0  0  0  0  0  0
    1.4380    0.1620   -1.1316 C   0  0  0  0  0  0  0  0  0  0  0  0
    2.7963    0.0632   -0.4811 C   0  0  0  0  0  0  0  0  0  0  0  0
    3.1507   -1.0961    0.2134 C   0  0  0  0  0  0  0  0  0  0  0  0
    4.3869   -1.1949    0.8387 C   0  0  0  0  0  0  0  0  0  0  0  0
    5.2862   -0.1314    0.7772 C   0  0  0  0  0  0  0  0  0  0  0  0
    4.9420    1.0258    0.0883 C   0  0  0  0  0  0  0  0  0  0  0  0
    3.7003    1.1213   -0.5371 C   0  0  0  0  0  0  0  0  0  0  0  0
   -1.4141   -1.2926   -0.8659 C   0  0  1  0  0  0  0  0  0  0  0  0
   -0.6895   -2.1286    0.0114 O   0  0  0  0  0  0  0  0  0  0  0  0
   -2.9315   -1.3232   -0.4935 C   0  0  1  0  0  0  0  0  0  0  0  0
   -3.1358   -2.0216    0.7151 O   0  0  0  0  0  0  0  0  0  0  0  0
   -3.3178    0.1511   -0.2480 C   0  0  1  0  0  0  0  0  0  0  0  0
   -4.3996    0.2887    0.6275 O   0  0  0  0  0  0  0  0  0  0  0  0
   -2.0136    0.7567    0.2806 C   0  0  2  0  0  0  0  0  0  0  0  0
   -1.9911    2.5669    0.3544 S   0  0  0  0  0  0  0  0  0  0  0  0
   -1.0346    0.7225   -1.6351 H   0  0  0  0  0  0  0  0  0  0  0  0
    0.5115    1.0522    0.4674 H   0  0  0  0  0  0  0  0  0  0  0  0
    1.4047    1.0235   -1.8183 H   0  0  0  0  0  0  0  0  0  0  0  0
    1.2505   -0.7358   -1.7348 H   0  0  0  0  0  0  0  0  0  0  0  0
    2.4481   -1.9270    0.2547 H   0  0  0  0  0  0  0  0  0  0  0  0
    4.6531   -2.1036    1.3725 H   0  0  0  0  0  0  0  0  0  0  0  0
    6.2546   -0.2084    1.2647 H   0  0  0  0  0  0  0  0  0  0  0  0
    5.6398    1.8577    0.0362 H   0  0  0  0  0  0  0  0  0  0  0  0
    3.4329    2.0285   -1.0762 H   0  0  0  0  0  0  0  0  0  0  0  0
   -1.2547   -1.6280   -1.8972 H   0  0  0  0  0  0  0  0  0  0  0  0
   -0.0194   -1.5267    0.4101 H   0  0  0  0  0  0  0  0  0  0  0  0
   -3.5432   -1.7789   -1.2811 H   0  0  0  0  0  0  0  0  0  0  0  0
   -2.2635   -2.3969    0.9415 H   0  0  0  0  0  0  0  0  0  0  0  0
   -3.5838    0.6454   -1.1910 H   0  0  0  0  0  0  0  0  0  0  0  0
   -4.3133   -0.4620    1.2404 H   0  0  0  0  0  0  0  0  0  0  0  0
   -1.8332    0.3492    1.2836 H   0  0  0  0  0  0  0  0  0  0  0  0
   -3.1186    2.6693    1.0746 H   0  0  0  0  0  0  0  0  0  0  0  0
  1 10  1  6  0  0  0
  1  2  1  0  0  0  0
  2 19  1  0  0  0  0
  3  4  1  0  0  0  0
  3  2  1  0  0  0  0
  4  5  1  0  0  0  0
  5 22  1  0  0  0  0
  5  6  2  0  0  0  0
  6 23  1  0  0  0  0
  7  6  1  0  0  0  0
  7 24  1  0  0  0  0
  8  7  2  0  0  0  0
  9  4  2  0  0  0  0
  9  8  1  0  0  0  0
 10 12  1  1  0  0  0
 10 11  1  0  0  0  0
 11 28  1  0  0  0  0
 12 14  1  1  0  0  0
 12 13  1  0  0  0  0
 13 30  1  0  0  0  0
 14 16  1  1  0  0  0
 14 15  1  0  0  0  0
 15 32  1  0  0  0  0
 16  1  1  6  0  0  0
 16 17  1  0  0  0  0
 16 33  1  0  0  0  0
 17 34  1  0  0  0  0
 18  1  1  0  0  0  0
 20  3  1  0  0  0  0
 21  3  1  0  0  0  0
 25  8  1  0  0  0  0
 26  9  1  0  0  0  0
 27 10  1  0  0  0  0
 29 12  1  0  0  0  0
 31 14  1  0  0  0  0
M  END
