omegapdb_2f7p_22.log
 OpenBabel09261812563D

 34 35  0  0  1  0  0  0  0  0999 V2000
   -1.0416   -0.0558   -0.8131 C   0  0  1  0  0  0  0  0  0  0  0  0
    0.2692    0.0349   -0.1951 N   0  0  0  0  0  0  0  0  0  0  0  0
    1.3934   -0.3395   -1.0397 C   0  0  0  0  0  0  0  0  0  0  0  0
    2.7171   -0.0238   -0.3748 C   0  0  0  0  0  0  0  0  0  0  0  0
    2.8929    1.1712    0.3258 C   0  0  0  0  0  0  0  0  0  0  0  0
    4.1189    1.4760    0.9061 C   0  0  0  0  0  0  0  0  0  0  0  0
    5.1875    0.5890    0.7949 C   0  0  0  0  0  0  0  0  0  0  0  0
    5.0194   -0.6059    0.1036 C   0  0  0  0  0  0  0  0  0  0  0  0
    3.7891   -0.9089   -0.4742 C   0  0  0  0  0  0  0  0  0  0  0  0
   -1.6985   -1.4755   -0.7835 C   0  0  1  0  0  0  0  0  0  0  0  0
   -0.7997   -2.5567   -0.7367 O   0  0  0  0  0  0  0  0  0  0  0  0
   -2.5768   -1.4582    0.4602 C   0  0  1  0  0  0  0  0  0  0  0  0
   -1.7516   -1.4886    1.6060 O   0  0  0  0  0  0  0  0  0  0  0  0
   -3.2337   -0.0832    0.3483 C   0  0  1  0  0  0  0  0  0  0  0  0
   -3.8281    0.2426    1.5858 O   0  0  0  0  0  0  0  0  0  0  0  0
   -2.0485    0.8229   -0.0234 C   0  0  2  0  0  0  0  0  0  0  0  0
   -2.6492    2.3344   -0.8357 S   0  0  0  0  0  0  0  0  0  0  0  0
   -0.9493    0.3019   -1.8453 H   0  0  0  0  0  0  0  0  0  0  0  0
    0.2678   -0.5347    0.6488 H   0  0  0  0  0  0  0  0  0  0  0  0
    1.3909   -1.4028   -1.3297 H   0  0  0  0  0  0  0  0  0  0  0  0
    1.3122    0.2419   -1.9699 H   0  0  0  0  0  0  0  0  0  0  0  0
    2.0495    1.8500    0.4203 H   0  0  0  0  0  0  0  0  0  0  0  0
    4.2424    2.4102    1.4488 H   0  0  0  0  0  0  0  0  0  0  0  0
    6.1451    0.8262    1.2516 H   0  0  0  0  0  0  0  0  0  0  0  0
    5.8439   -1.3096    0.0199 H   0  0  0  0  0  0  0  0  0  0  0  0
    3.6582   -1.8508   -1.0045 H   0  0  0  0  0  0  0  0  0  0  0  0
   -2.3756   -1.5664   -1.6491 H   0  0  0  0  0  0  0  0  0  0  0  0
   -0.4422   -2.6864   -1.6232 H   0  0  0  0  0  0  0  0  0  0  0  0
   -3.3059   -2.2799    0.4746 H   0  0  0  0  0  0  0  0  0  0  0  0
   -2.2760   -1.0847    2.3148 H   0  0  0  0  0  0  0  0  0  0  0  0
   -3.9875   -0.0968   -0.4555 H   0  0  0  0  0  0  0  0  0  0  0  0
   -4.0539    1.1828    1.5686 H   0  0  0  0  0  0  0  0  0  0  0  0
   -1.5579    1.1112    0.9094 H   0  0  0  0  0  0  0  0  0  0  0  0
   -1.5377    3.0651   -0.6642 H   0  0  0  0  0  0  0  0  0  0  0  0
  1 10  1  1  0  0  0
  1  2  1  0  0  0  0
  2 19  1  0  0  0  0
  3  4  1  0  0  0  0
  3  2  1  0  0  0  0
  4  5  1  0  0  0  0
  5 22  1  0  0  0  0
  5  6  2  0  0  0  0
  6 23  1  0  0  0  0
  7  6  1  0  0  0  0
  7 24  1  0  0  0  0
  8  7  2  0  0  0  0
  9  4  2  0  0  0  0
  9  8  1  0  0  0  0
 10 11  1  0  0  0  0
 10 12  1  1  0  0  0
 12 14  1  1  0  0  0
 12 29  1  0  0  0  0
 12 13  1  0  0  0  0
 13 30  1  0  0  0  0
 14 16  1  6  0  0  0
 14 15  1  0  0  0  0
 16  1  1  6  0  0  0
 16 33  1  0  0  0  0
 17 34  1  0  0  0  0
 17 16  1  0  0  0  0
 18  1  1  0  0  0  0
 20  3  1  0  0  0  0
 21  3  1  0  0  0  0
 25  8  1  0  0  0  0
 26  9  1  0  0  0  0
 27 10  1  0  0  0  0
 28 11  1  0  0  0  0
 31 14  1  0  0  0  0
 32 15  1  0  0  0  0
M  END
