omegapdb_1z1r_13.log
 OpenBabel09261812563D

 66 68  0  0  1  0  0  0  0  0999 V2000
   -0.1588   -0.0475   -0.5884 C   0  0  2  0  0  0  0  0  0  0  0  0
   -0.2703   -1.2028    0.4312 C   0  0  0  0  0  0  0  0  0  0  0  0
    1.0703   -1.8467    0.6850 C   0  0  0  0  0  0  0  0  0  0  0  0
    1.8363   -1.5081    1.8022 C   0  0  0  0  0  0  0  0  0  0  0  0
    3.1442   -1.9597    1.9389 C   0  0  0  0  0  0  0  0  0  0  0  0
    3.7146   -2.7506    0.9441 C   0  0  0  0  0  0  0  0  0  0  0  0
    2.9280   -3.1873   -0.1214 C   0  0  0  0  0  0  0  0  0  0  0  0
    1.6238   -2.7240   -0.2483 C   0  0  0  0  0  0  0  0  0  0  0  0
    5.0498   -3.0487    1.0439 O   0  0  0  0  0  0  0  0  0  0  0  0
    5.8512   -2.7343   -0.1004 C   0  0  0  0  0  0  0  0  0  0  0  0
    6.1692   -1.2486   -0.2516 C   0  0  0  0  0  0  0  0  0  0  0  0
    4.9368   -0.3566   -0.3962 C   0  0  0  0  0  0  0  0  0  0  0  0
    5.2097    0.9560   -1.1005 C   0  0  0  0  0  0  0  0  0  0  0  0
    6.1429    1.1187   -1.8675 O   0  0  0  0  0  0  0  0  0  0  0  0
    4.3290    1.9880   -0.8542 N   0  0  0  0  0  0  0  0  0  0  0  0
    3.0808    1.9170   -0.1272 C   0  0  2  0  0  0  0  0  0  0  0  0
    2.0197    1.0564   -0.8583 C   0  0  0  0  0  0  0  0  0  0  0  0
    2.2452    0.5608   -1.9518 O   0  0  0  0  0  0  0  0  0  0  0  0
    0.8570    0.9036   -0.1763 N   0  0  0  0  0  0  0  0  0  0  0  0
    2.5894    3.3488    0.1485 C   0  0  0  0  0  0  0  0  0  0  0  0
    1.8403    3.4952    1.4672 C   0  0  0  0  0  0  0  0  0  0  0  0
    1.4552    2.5422    2.1322 O   0  0  0  0  0  0  0  0  0  0  0  0
    1.6259    4.7736    1.8604 N   0  0  0  0  0  0  0  0  0  0  0  0
   -1.4830    0.6909   -0.7980 C   0  0  2  0  0  0  0  0  0  0  0  0
   -1.8614    1.2654    0.4354 O   0  0  0  0  0  0  0  0  0  0  0  0
   -2.6022   -0.2038   -1.3251 C   0  0  0  0  0  0  0  0  0  0  0  0
   -3.7940    0.6318   -1.5091 N   0  0  0  0  0  0  0  0  0  0  0  0
   -5.2740   -0.1543   -1.6232 S   0  0  0  0  0  0  0  0  0  0  0  0
   -5.1064   -1.4648   -2.2323 O   0  0  0  0  0  0  0  0  0  0  0  0
   -6.1688    0.8369   -2.1968 O   0  0  0  0  0  0  0  0  0  0  0  0
   -5.6795   -0.4040    0.0862 C   0  0  0  0  0  0  0  0  0  0  0  0
   -5.5572   -1.6739    0.6374 C   0  0  0  0  0  0  0  0  0  0  0  0
   -5.8671   -1.8548    1.9829 C   0  0  0  0  0  0  0  0  0  0  0  0
   -6.2960   -0.7761    2.7491 C   0  0  0  0  0  0  0  0  0  0  0  0
   -6.4260    0.4901    2.1786 C   0  0  0  0  0  0  0  0  0  0  0  0
   -6.1183    0.6834    0.8388 C   0  0  0  0  0  0  0  0  0  0  0  0
    0.1770   -0.4412   -1.5541 H   0  0  0  0  0  0  0  0  0  0  0  0
   -0.9761   -1.9494    0.0454 H   0  0  0  0  0  0  0  0  0  0  0  0
   -0.6949   -0.8072    1.3610 H   0  0  0  0  0  0  0  0  0  0  0  0
    1.4213   -0.8404    2.5557 H   0  0  0  0  0  0  0  0  0  0  0  0
    3.7613   -1.6556    2.7802 H   0  0  0  0  0  0  0  0  0  0  0  0
    3.3440   -3.8529   -0.8724 H   0  0  0  0  0  0  0  0  0  0  0  0
    1.0348   -3.0312   -1.1113 H   0  0  0  0  0  0  0  0  0  0  0  0
    5.3707   -3.1085   -1.0136 H   0  0  0  0  0  0  0  0  0  0  0  0
    6.7760   -3.2998    0.0439 H   0  0  0  0  0  0  0  0  0  0  0  0
    6.7943   -1.1262   -1.1440 H   0  0  0  0  0  0  0  0  0  0  0  0
    6.7694   -0.9177    0.6044 H   0  0  0  0  0  0  0  0  0  0  0  0
    4.1641   -0.8471   -1.0029 H   0  0  0  0  0  0  0  0  0  0  0  0
    4.4775   -0.1809    0.5790 H   0  0  0  0  0  0  0  0  0  0  0  0
    4.4143    2.7194   -1.5482 H   0  0  0  0  0  0  0  0  0  0  0  0
    3.2558    1.4434    0.8454 H   0  0  0  0  0  0  0  0  0  0  0  0
    0.8006    1.2883    0.7636 H   0  0  0  0  0  0  0  0  0  0  0  0
    1.9415    3.7068   -0.6622 H   0  0  0  0  0  0  0  0  0  0  0  0
    3.4626    4.0117    0.1779 H   0  0  0  0  0  0  0  0  0  0  0  0
    1.1228    4.9305    2.7204 H   0  0  0  0  0  0  0  0  0  0  0  0
    1.9678    5.5671    1.3434 H   0  0  0  0  0  0  0  0  0  0  0  0
   -1.2914    1.4833   -1.5435 H   0  0  0  0  0  0  0  0  0  0  0  0
   -2.7823    1.5498    0.3337 H   0  0  0  0  0  0  0  0  0  0  0  0
   -2.3111   -0.7229   -2.2470 H   0  0  0  0  0  0  0  0  0  0  0  0
   -2.8460   -0.9576   -0.5697 H   0  0  0  0  0  0  0  0  0  0  0  0
   -3.7306    1.2699   -2.3003 H   0  0  0  0  0  0  0  0  0  0  0  0
   -5.2373   -2.5013    0.0107 H   0  0  0  0  0  0  0  0  0  0  0  0
   -5.7758   -2.8406    2.4298 H   0  0  0  0  0  0  0  0  0  0  0  0
   -6.5368   -0.9217    3.7988 H   0  0  0  0  0  0  0  0  0  0  0  0
   -6.7732    1.3257    2.7798 H   0  0  0  0  0  0  0  0  0  0  0  0
   -6.2291    1.6569    0.3691 H   0  0  0  0  0  0  0  0  0  0  0  0
  1 37  1  6  0  0  0
  1 19  1  0  0  0  0
  1  2  1  0  0  0  0
  2  3  1  0  0  0  0
  2 39  1  0  0  0  0
  3  4  2  0  0  0  0
  4  5  1  0  0  0  0
  4 40  1  0  0  0  0
  5 41  1  0  0  0  0
  6  9  1  0  0  0  0
  6  5  2  0  0  0  0
  7  6  1  0  0  0  0
  8  7  2  0  0  0  0
  8  3  1  0  0  0  0
 10 45  1  0  0  0  0
 10  9  1  0  0  0  0
 11 10  1  0  0  0  0
 11 47  1  0  0  0  0
 12 11  1  0  0  0  0
 12 49  1  0  0  0  0
 13 15  1  0  0  0  0
 13 12  1  0  0  0  0
 14 13  2  0  0  0  0
 15 16  1  0  0  0  0
 16 20  1  0  0  0  0
 16 51  1  1  0  0  0
 17 19  1  0  0  0  0
 17 16  1  0  0  0  0
 18 17  2  0  0  0  0
 19 52  1  0  0  0  0
 20 54  1  0  0  0  0
 20 21  1  0  0  0  0
 21 23  1  0  0  0  0
 21 22  2  0  0  0  0
 23 55  1  0  0  0  0
 24 57  1  6  0  0  0
 24  1  1  0  0  0  0
 24 25  1  0  0  0  0
 26 24  1  0  0  0  0
 26 60  1  0  0  0  0
 27 26  1  0  0  0  0
 28 27  1  0  0  0  0
 28 31  1  0  0  0  0
 29 28  2  0  0  0  0
 30 28  2  0  0  0  0
 31 32  2  0  0  0  0
 31 36  1  0  0  0  0
 32 33  1  0  0  0  0
 33 63  1  0  0  0  0
 33 34  2  0  0  0  0
 34 64  1  0  0  0  0
 35 34  1  0  0  0  0
 35 65  1  0  0  0  0
 36 35  2  0  0  0  0
 38  2  1  0  0  0  0
 42  7  1  0  0  0  0
 43  8  1  0  0  0  0
 44 10  1  0  0  0  0
 46 11  1  0  0  0  0
 48 12  1  0  0  0  0
 50 15  1  0  0  0  0
 53 20  1  0  0  0  0
 56 23  1  0  0  0  0
 58 25  1  0  0  0  0
 59 26  1  0  0  0  0
 61 27  1  0  0  0  0
 62 32  1  0  0  0  0
 66 36  1  0  0  0  0
M  END
