omegapdb_1gs5_14.log
 OpenBabel09261812563D

 24 23  0  0  1  0  0  0  0  0999 V2000
   -0.6878    0.4920    0.2658 C   0  0  2  0  0  0  0  0  0  0  0  0
   -0.6975    1.9855    0.0083 C   0  0  0  0  0  0  0  0  0  0  0  0
   -1.5207    2.5667   -0.6589 O   0  0  0  0  0  0  0  0  0  0  0  0
    0.3360    2.6151    0.5928 O   0  0  0  0  0  0  0  0  0  0  0  0
    0.5369   -0.1950   -0.3739 C   0  0  0  0  0  0  0  0  0  0  0  0
    1.8079   -0.0798    0.4576 C   0  0  0  0  0  0  0  0  0  0  0  0
    2.9924   -0.7277   -0.2371 C   0  0  0  0  0  0  0  0  0  0  0  0
    2.9740   -1.1575   -1.3585 O   0  0  0  0  0  0  0  0  0  0  0  0
    4.1294   -0.7824    0.4953 O   0  0  0  0  0  0  0  0  0  0  0  0
   -1.9290   -0.0370   -0.2472 N   0  0  0  0  0  0  0  0  0  0  0  0
   -2.4046   -1.2275    0.2108 C   0  0  0  0  0  0  0  0  0  0  0  0
   -1.7736   -1.9042    1.0101 O   0  0  0  0  0  0  0  0  0  0  0  0
   -3.7491   -1.6579   -0.3347 C   0  0  0  0  0  0  0  0  0  0  0  0
   -0.6571    0.3230    1.3504 H   0  0  0  0  0  0  0  0  0  0  0  0
    0.2581    3.5528    0.3480 H   0  0  0  0  0  0  0  0  0  0  0  0
    0.2835   -1.2529   -0.4784 H   0  0  0  0  0  0  0  0  0  0  0  0
    0.7093    0.1917   -1.3840 H   0  0  0  0  0  0  0  0  0  0  0  0
    1.6593   -0.5618    1.4343 H   0  0  0  0  0  0  0  0  0  0  0  0
    2.0595    0.9693    0.6582 H   0  0  0  0  0  0  0  0  0  0  0  0
    3.9756   -0.4095    1.3743 H   0  0  0  0  0  0  0  0  0  0  0  0
   -2.4829    0.5725   -0.8320 H   0  0  0  0  0  0  0  0  0  0  0  0
   -3.6360   -2.6358   -0.8099 H   0  0  0  0  0  0  0  0  0  0  0  0
   -4.4455   -1.7761    0.4999 H   0  0  0  0  0  0  0  0  0  0  0  0
   -4.1706   -0.9543   -1.0581 H   0  0  0  0  0  0  0  0  0  0  0  0
  1 14  1  1  0  0  0
  2  1  1  0  0  0  0
  2  4  1  0  0  0  0
  3  2  2  0  0  0  0
  5  1  1  0  0  0  0
  5  6  1  0  0  0  0
  6 19  1  0  0  0  0
  6 18  1  0  0  0  0
  7  6  1  0  0  0  0
  7  9  1  0  0  0  0
  8  7  2  0  0  0  0
  9 20  1  0  0  0  0
 10 11  1  0  0  0  0
 10  1  1  0  0  0  0
 11 12  2  0  0  0  0
 13 11  1  0  0  0  0
 13 23  1  0  0  0  0
 15  4  1  0  0  0  0
 16  5  1  0  0  0  0
 17  5  1  0  0  0  0
 21 10  1  0  0  0  0
 22 13  1  0  0  0  0
 24 13  1  0  0  0  0
M  END
