omegapdb_1z1r_01.log
 OpenBabel09261812563D

 66 68  0  0  1  0  0  0  0  0999 V2000
   -0.1774   -1.0871    1.3209 C   0  0  2  0  0  0  0  0  0  0  0  0
   -0.3872   -2.3745    0.5066 C   0  0  0  0  0  0  0  0  0  0  0  0
   -1.8347   -2.4863    0.0834 C   0  0  0  0  0  0  0  0  0  0  0  0
   -2.8302   -2.7267    1.0333 C   0  0  0  0  0  0  0  0  0  0  0  0
   -4.1751   -2.6134    0.7066 C   0  0  0  0  0  0  0  0  0  0  0  0
   -4.5458   -2.2602   -0.5892 C   0  0  0  0  0  0  0  0  0  0  0  0
   -3.5701   -2.1131   -1.5730 C   0  0  0  0  0  0  0  0  0  0  0  0
   -2.2252   -2.2130   -1.2283 C   0  0  0  0  0  0  0  0  0  0  0  0
   -5.8769   -2.0593   -0.8446 O   0  0  0  0  0  0  0  0  0  0  0  0
   -6.2390   -0.7499   -1.2906 C   0  0  0  0  0  0  0  0  0  0  0  0
   -5.9595    0.3658   -0.2805 C   0  0  0  0  0  0  0  0  0  0  0  0
   -4.5274    0.8993   -0.2967 C   0  0  0  0  0  0  0  0  0  0  0  0
   -4.3334    2.0737    0.6508 C   0  0  0  0  0  0  0  0  0  0  0  0
   -5.2244    2.4960    1.3644 O   0  0  0  0  0  0  0  0  0  0  0  0
   -3.0859    2.6662    0.6555 N   0  0  0  0  0  0  0  0  0  0  0  0
   -1.8966    2.0778    0.0855 C   0  0  2  0  0  0  0  0  0  0  0  0
   -1.2290    1.1079    1.0761 C   0  0  0  0  0  0  0  0  0  0  0  0
   -1.2900    1.3003    2.2923 O   0  0  0  0  0  0  0  0  0  0  0  0
   -0.5916    0.0566    0.5271 N   0  0  0  0  0  0  0  0  0  0  0  0
   -0.8971    3.1510   -0.3547 C   0  0  0  0  0  0  0  0  0  0  0  0
    0.1901    2.5180   -1.2205 C   0  0  0  0  0  0  0  0  0  0  0  0
   -0.0413    1.5231   -1.9000 O   0  0  0  0  0  0  0  0  0  0  0  0
    1.4016    3.1088   -1.1877 N   0  0  0  0  0  0  0  0  0  0  0  0
    1.2235   -0.9381    1.9412 C   0  0  2  0  0  0  0  0  0  0  0  0
    1.3783    0.3335    2.5370 O   0  0  0  0  0  0  0  0  0  0  0  0
    2.4048   -1.1212    0.9949 C   0  0  0  0  0  0  0  0  0  0  0  0
    2.4355   -0.0274    0.0288 N   0  0  0  0  0  0  0  0  0  0  0  0
    3.5512   -0.0827   -1.1870 S   0  0  0  0  0  0  0  0  0  0  0  0
    3.5324    1.2371   -1.8101 O   0  0  0  0  0  0  0  0  0  0  0  0
    3.2973   -1.2946   -1.9434 O   0  0  0  0  0  0  0  0  0  0  0  0
    5.1482   -0.2661   -0.4200 C   0  0  0  0  0  0  0  0  0  0  0  0
    5.6944   -1.5381   -0.2781 C   0  0  0  0  0  0  0  0  0  0  0  0
    6.9260   -1.6781    0.3543 C   0  0  0  0  0  0  0  0  0  0  0  0
    7.5945   -0.5559    0.8350 C   0  0  0  0  0  0  0  0  0  0  0  0
    7.0404    0.7134    0.6813 C   0  0  0  0  0  0  0  0  0  0  0  0
    5.8113    0.8645    0.0510 C   0  0  0  0  0  0  0  0  0  0  0  0
   -0.8705   -1.1083    2.1723 H   0  0  0  0  0  0  0  0  0  0  0  0
   -0.0851   -3.2323    1.1216 H   0  0  0  0  0  0  0  0  0  0  0  0
    0.2632   -2.3638   -0.3779 H   0  0  0  0  0  0  0  0  0  0  0  0
   -2.5514   -2.9631    2.0594 H   0  0  0  0  0  0  0  0  0  0  0  0
   -4.9526   -2.7523    1.4522 H   0  0  0  0  0  0  0  0  0  0  0  0
   -3.8594   -1.8802   -2.5944 H   0  0  0  0  0  0  0  0  0  0  0  0
   -1.4664   -2.0483   -1.9917 H   0  0  0  0  0  0  0  0  0  0  0  0
   -5.7572   -0.5299   -2.2550 H   0  0  0  0  0  0  0  0  0  0  0  0
   -7.3146   -0.8261   -1.4693 H   0  0  0  0  0  0  0  0  0  0  0  0
   -6.2200    0.0140    0.7235 H   0  0  0  0  0  0  0  0  0  0  0  0
   -6.6403    1.1983   -0.4924 H   0  0  0  0  0  0  0  0  0  0  0  0
   -3.8126    0.1179   -0.0149 H   0  0  0  0  0  0  0  0  0  0  0  0
   -4.2531    1.2056   -1.3160 H   0  0  0  0  0  0  0  0  0  0  0  0
   -2.9462    3.2495    1.4720 H   0  0  0  0  0  0  0  0  0  0  0  0
   -2.1712    1.5269   -0.8152 H   0  0  0  0  0  0  0  0  0  0  0  0
   -0.4532    0.0546   -0.4789 H   0  0  0  0  0  0  0  0  0  0  0  0
   -0.4679    3.6624    0.5159 H   0  0  0  0  0  0  0  0  0  0  0  0
   -1.4323    3.8993   -0.9509 H   0  0  0  0  0  0  0  0  0  0  0  0
    1.5844    3.9174   -0.6161 H   0  0  0  0  0  0  0  0  0  0  0  0
    2.1674    2.6517   -1.6763 H   0  0  0  0  0  0  0  0  0  0  0  0
    1.3104   -1.7341    2.7010 H   0  0  0  0  0  0  0  0  0  0  0  0
    0.4939    0.6742    2.7738 H   0  0  0  0  0  0  0  0  0  0  0  0
    2.3245   -2.0674    0.4519 H   0  0  0  0  0  0  0  0  0  0  0  0
    3.3241   -1.1496    1.5989 H   0  0  0  0  0  0  0  0  0  0  0  0
    2.3756    0.8860    0.4727 H   0  0  0  0  0  0  0  0  0  0  0  0
    5.1659   -2.3971   -0.6812 H   0  0  0  0  0  0  0  0  0  0  0  0
    7.3664   -2.6649    0.4656 H   0  0  0  0  0  0  0  0  0  0  0  0
    8.5571   -0.6692    1.3263 H   0  0  0  0  0  0  0  0  0  0  0  0
    7.5703    1.5882    1.0476 H   0  0  0  0  0  0  0  0  0  0  0  0
    5.3752    1.8481   -0.0976 H   0  0  0  0  0  0  0  0  0  0  0  0
  1 24  1  0  0  0  0
  1 37  1  1  0  0  0
  2 38  1  0  0  0  0
  2  1  1  0  0  0  0
  3  2  1  0  0  0  0
  3  4  2  0  0  0  0
  4 40  1  0  0  0  0
  5  4  1  0  0  0  0
  5 41  1  0  0  0  0
  6  5  2  0  0  0  0
  7  8  2  0  0  0  0
  7  6  1  0  0  0  0
  8  3  1  0  0  0  0
  9  6  1  0  0  0  0
 10  9  1  0  0  0  0
 10 11  1  0  0  0  0
 11 46  1  0  0  0  0
 12 11  1  0  0  0  0
 12 48  1  0  0  0  0
 12 13  1  0  0  0  0
 13 15  1  0  0  0  0
 13 14  2  0  0  0  0
 15 50  1  0  0  0  0
 16 51  1  6  0  0  0
 16 15  1  0  0  0  0
 16 17  1  0  0  0  0
 17 18  2  0  0  0  0
 19 17  1  0  0  0  0
 19  1  1  0  0  0  0
 20 16  1  0  0  0  0
 20 53  1  0  0  0  0
 21 23  1  0  0  0  0
 21 20  1  0  0  0  0
 22 21  2  0  0  0  0
 23 55  1  0  0  0  0
 24 25  1  0  0  0  0
 24 57  1  1  0  0  0
 25 58  1  0  0  0  0
 26 60  1  0  0  0  0
 26 24  1  0  0  0  0
 27 61  1  0  0  0  0
 27 26  1  0  0  0  0
 28 31  1  0  0  0  0
 28 27  1  0  0  0  0
 29 28  2  0  0  0  0
 30 28  2  0  0  0  0
 31 32  2  0  0  0  0
 31 36  1  0  0  0  0
 32 33  1  0  0  0  0
 33 63  1  0  0  0  0
 33 34  2  0  0  0  0
 34 64  1  0  0  0  0
 35 34  1  0  0  0  0
 35 65  1  0  0  0  0
 36 35  2  0  0  0  0
 39  2  1  0  0  0  0
 42  7  1  0  0  0  0
 43  8  1  0  0  0  0
 44 10  1  0  0  0  0
 45 10  1  0  0  0  0
 47 11  1  0  0  0  0
 49 12  1  0  0  0  0
 52 19  1  0  0  0  0
 54 20  1  0  0  0  0
 56 23  1  0  0  0  0
 59 26  1  0  0  0  0
 62 32  1  0  0  0  0
 66 36  1  0  0  0  0
M  END
