omegacsd_SEYMIS_09.log
 OpenBabel09261812563D

 45 47  0  0  0  0  0  0  0  0999 V2000
   -1.2515    1.1188    2.5664 O   0  0  0  0  0  0  0  0  0  0  0  0
   -2.2814    0.2449    2.3049 N   0  0  0  0  0  0  0  0  0  0  0  0
   -2.5485    0.3582    1.0264 C   0  0  0  0  0  0  0  0  0  0  0  0
   -1.6732    1.3146    0.4115 C   0  0  0  0  0  0  0  0  0  0  0  0
   -1.6162    1.7954   -0.9984 C   0  0  0  0  0  0  0  0  0  0  0  0
   -2.5757    2.2834   -1.5737 O   0  0  0  0  0  0  0  0  0  0  0  0
   -0.3917    1.7160   -1.6158 N   0  0  0  0  0  0  0  0  0  0  0  0
    0.6729    0.8519   -1.2629 C   0  0  0  0  0  0  0  0  0  0  0  0
    0.5763   -0.5092   -1.0403 C   0  0  0  0  0  0  0  0  0  0  0  0
    1.8043   -0.9936   -0.7259 N   0  0  0  0  0  0  0  0  0  0  0  0
    2.0571   -2.3929   -0.4143 C   0  0  0  0  0  0  0  0  0  0  0  0
    2.7090    0.0500   -0.7616 C   0  0  0  0  0  0  0  0  0  0  0  0
    2.0248    1.2053   -1.0865 C   0  0  0  0  0  0  0  0  0  0  0  0
    4.1521   -0.0146   -0.4990 C   0  0  0  0  0  0  0  0  0  0  0  0
    4.8724    0.9586   -0.5376 O   0  0  0  0  0  0  0  0  0  0  0  0
    4.5884   -1.2585   -0.2170 O   0  0  0  0  0  0  0  0  0  0  0  0
    5.9955   -1.3823    0.0631 C   0  0  0  0  0  0  0  0  0  0  0  0
    6.3038   -1.0101    1.5006 C   0  0  0  0  0  0  0  0  0  0  0  0
   -0.8897    1.7430    1.4395 C   0  0  0  0  0  0  0  0  0  0  0  0
    0.2276    2.7196    1.5419 C   0  0  0  0  0  0  0  0  0  0  0  0
   -3.5808   -0.5202    0.4309 C   0  0  0  0  0  0  0  0  0  0  0  0
   -3.7836   -1.7902    0.9828 C   0  0  0  0  0  0  0  0  0  0  0  0
   -4.7523   -2.6360    0.4587 C   0  0  0  0  0  0  0  0  0  0  0  0
   -5.5263   -2.2239   -0.6236 C   0  0  0  0  0  0  0  0  0  0  0  0
   -5.3292   -0.9614   -1.1735 C   0  0  0  0  0  0  0  0  0  0  0  0
   -4.3624   -0.1070   -0.6511 C   0  0  0  0  0  0  0  0  0  0  0  0
   -0.4099    2.0822   -2.5598 H   0  0  0  0  0  0  0  0  0  0  0  0
   -0.2925   -1.1551   -1.0656 H   0  0  0  0  0  0  0  0  0  0  0  0
    2.4674   -2.4952    0.5916 H   0  0  0  0  0  0  0  0  0  0  0  0
    2.7637   -2.8226   -1.1262 H   0  0  0  0  0  0  0  0  0  0  0  0
    1.1064   -2.9258   -0.4755 H   0  0  0  0  0  0  0  0  0  0  0  0
    2.4764    2.1835   -1.1856 H   0  0  0  0  0  0  0  0  0  0  0  0
    6.5498   -0.7527   -0.6370 H   0  0  0  0  0  0  0  0  0  0  0  0
    6.2189   -2.4329   -0.1373 H   0  0  0  0  0  0  0  0  0  0  0  0
    7.3641   -1.1849    1.7109 H   0  0  0  0  0  0  0  0  0  0  0  0
    5.7106   -1.6157    2.1928 H   0  0  0  0  0  0  0  0  0  0  0  0
    6.0874    0.0471    1.6746 H   0  0  0  0  0  0  0  0  0  0  0  0
    1.1805    2.1986    1.6820 H   0  0  0  0  0  0  0  0  0  0  0  0
    0.0697    3.3874    2.3936 H   0  0  0  0  0  0  0  0  0  0  0  0
    0.2931    3.3130    0.6276 H   0  0  0  0  0  0  0  0  0  0  0  0
   -3.1764   -2.1011    1.8283 H   0  0  0  0  0  0  0  0  0  0  0  0
   -4.9028   -3.6201    0.8952 H   0  0  0  0  0  0  0  0  0  0  0  0
   -6.2834   -2.8866   -1.0355 H   0  0  0  0  0  0  0  0  0  0  0  0
   -5.9358   -0.6318   -2.0131 H   0  0  0  0  0  0  0  0  0  0  0  0
   -4.2151    0.8825   -1.0737 H   0  0  0  0  0  0  0  0  0  0  0  0
  2  1  1  0  0  0  0
  3  2  2  0  0  0  0
  4  3  1  0  0  0  0
  4 19  2  0  0  0  0
  5  4  1  0  0  0  0
  6  5  2  0  0  0  0
  7  8  1  0  0  0  0
  7  5  1  0  0  0  0
  8 13  1  0  0  0  0
  8  9  2  0  0  0  0
  9 10  1  0  0  0  0
 10 11  1  0  0  0  0
 11 29  1  0  0  0  0
 12 10  1  0  0  0  0
 12 14  1  0  0  0  0
 13 12  2  0  0  0  0
 14 16  1  0  0  0  0
 15 14  2  0  0  0  0
 16 17  1  0  0  0  0
 17 18  1  0  0  0  0
 18 37  1  0  0  0  0
 18 35  1  0  0  0  0
 18 36  1  0  0  0  0
 19 20  1  0  0  0  0
 19  1  1  0  0  0  0
 20 38  1  0  0  0  0
 20 39  1  0  0  0  0
 21 22  2  0  0  0  0
 21  3  1  0  0  0  0
 22 41  1  0  0  0  0
 23 42  1  0  0  0  0
 23 22  1  0  0  0  0
 24 23  2  0  0  0  0
 25 26  2  0  0  0  0
 25 24  1  0  0  0  0
 26 21  1  0  0  0  0
 27  7  1  0  0  0  0
 28  9  1  0  0  0  0
 30 11  1  0  0  0  0
 31 11  1  0  0  0  0
 32 13  1  0  0  0  0
 33 17  1  0  0  0  0
 34 17  1  0  0  0  0
 40 20  1  0  0  0  0
 43 24  1  0  0  0  0
 44 25  1  0  0  0  0
 45 26  1  0  0  0  0
M  END
