omegapdb_2byh_02.log
 OpenBabel09261812563D

 40 42  0  0  0  0  0  0  0  0999 V2000
   -6.6415   -0.5681    0.1317 O   0  0  0  0  0  0  0  0  0  0  0  0
   -5.7987    0.2080   -0.2767 C   0  0  0  0  0  0  0  0  0  0  0  0
   -6.1934    1.5814   -0.7817 C   0  0  0  0  0  0  0  0  0  0  0  0
   -4.3523   -0.1711   -0.2913 C   0  0  0  0  0  0  0  0  0  0  0  0
   -3.3471    0.6836   -0.7506 C   0  0  0  0  0  0  0  0  0  0  0  0
   -2.0217    0.2809   -0.7376 C   0  0  0  0  0  0  0  0  0  0  0  0
   -1.6707   -0.9917   -0.2691 C   0  0  0  0  0  0  0  0  0  0  0  0
   -2.6693   -1.8580    0.1928 C   0  0  0  0  0  0  0  0  0  0  0  0
   -3.9899   -1.4361    0.1769 C   0  0  0  0  0  0  0  0  0  0  0  0
   -0.3071   -1.3225   -0.2913 N   0  0  0  0  0  0  0  0  0  0  0  0
    0.3264   -2.3994    0.2913 C   0  0  0  0  0  0  0  0  0  0  0  0
   -0.2631   -3.3314    0.8110 O   0  0  0  0  0  0  0  0  0  0  0  0
    1.8080   -2.3805    0.2131 C   0  0  0  0  0  0  0  0  0  0  0  0
    2.5756   -3.5659    0.2714 C   0  0  0  0  0  0  0  0  0  0  0  0
    3.8662   -3.3285    0.1302 N   0  0  0  0  0  0  0  0  0  0  0  0
    3.9439   -1.9968    0.0056 N   0  0  0  0  0  0  0  0  0  0  0  0
    2.7488   -1.3644    0.0461 C   0  0  0  0  0  0  0  0  0  0  0  0
    2.6405    0.1061   -0.0124 C   0  0  0  0  0  0  0  0  0  0  0  0
    1.6963    0.7804    0.7650 C   0  0  0  0  0  0  0  0  0  0  0  0
    1.5510    2.1566    0.6961 C   0  0  0  0  0  0  0  0  0  0  0  0
    0.3454    2.9674    1.6556 Cl  0  0  0  0  0  0  0  0  0  0  0  0
    2.3755    2.9175   -0.1396 C   0  0  0  0  0  0  0  0  0  0  0  0
    2.2884    4.2555   -0.2506 O   0  0  0  0  0  0  0  0  0  0  0  0
    3.3462    2.2637   -0.8952 C   0  0  0  0  0  0  0  0  0  0  0  0
    3.4810    0.8835   -0.8314 C   0  0  0  0  0  0  0  0  0  0  0  0
    4.4372    0.2325   -1.5481 O   0  0  0  0  0  0  0  0  0  0  0  0
   -5.9083    1.7075   -1.8323 H   0  0  0  0  0  0  0  0  0  0  0  0
   -7.2744    1.6911   -0.6843 H   0  0  0  0  0  0  0  0  0  0  0  0
   -5.6941    2.3689   -0.2061 H   0  0  0  0  0  0  0  0  0  0  0  0
   -3.5896    1.6767   -1.1197 H   0  0  0  0  0  0  0  0  0  0  0  0
   -1.2445    0.9599   -1.0856 H   0  0  0  0  0  0  0  0  0  0  0  0
   -2.3982   -2.8397    0.5569 H   0  0  0  0  0  0  0  0  0  0  0  0
   -4.7779   -2.0947    0.5307 H   0  0  0  0  0  0  0  0  0  0  0  0
    0.2894   -0.6513   -0.7533 H   0  0  0  0  0  0  0  0  0  0  0  0
    2.2028   -4.5735    0.3976 H   0  0  0  0  0  0  0  0  0  0  0  0
    4.8376   -1.5623   -0.1672 H   0  0  0  0  0  0  0  0  0  0  0  0
    1.0570    0.2186    1.4392 H   0  0  0  0  0  0  0  0  0  0  0  0
    1.5932    4.5809    0.3420 H   0  0  0  0  0  0  0  0  0  0  0  0
    3.9919    2.8644   -1.5307 H   0  0  0  0  0  0  0  0  0  0  0  0
    4.9159    0.8666   -2.0978 H   0  0  0  0  0  0  0  0  0  0  0  0
  2  1  2  0  0  0  0
  3 28  1  0  0  0  0
  3  2  1  0  0  0  0
  3 29  1  0  0  0  0
  4  2  1  0  0  0  0
  4  9  2  0  0  0  0
  5  6  2  0  0  0  0
  5  4  1  0  0  0  0
  6  7  1  0  0  0  0
  7  8  2  0  0  0  0
  8 32  1  0  0  0  0
  9  8  1  0  0  0  0
  9 33  1  0  0  0  0
 10  7  1  0  0  0  0
 10 11  1  0  0  0  0
 11 12  2  0  0  0  0
 13 14  1  0  0  0  0
 13 11  1  0  0  0  0
 14 35  1  0  0  0  0
 15 14  2  0  0  0  0
 16 17  1  0  0  0  0
 16 15  1  0  0  0  0
 17 13  2  0  0  0  0
 18 17  1  0  0  0  0
 18 19  2  0  0  0  0
 19 37  1  0  0  0  0
 20 19  1  0  0  0  0
 20 21  1  0  0  0  0
 22 20  2  0  0  0  0
 23 22  1  0  0  0  0
 23 38  1  0  0  0  0
 24 25  2  0  0  0  0
 24 22  1  0  0  0  0
 25 18  1  0  0  0  0
 26 25  1  0  0  0  0
 27  3  1  0  0  0  0
 30  5  1  0  0  0  0
 31  6  1  0  0  0  0
 34 10  1  0  0  0  0
 36 16  1  0  0  0  0
 39 24  1  0  0  0  0
 40 26  1  0  0  0  0
M  END
