omegapdb_1z1r_18.log
 OpenBabel09261812563D

 66 68  0  0  1  0  0  0  0  0999 V2000
    0.8857    0.9958   -0.3322 C   0  0  2  0  0  0  0  0  0  0  0  0
    1.0739   -0.1869   -1.3219 C   0  0  0  0  0  0  0  0  0  0  0  0
   -0.0838   -1.1586   -1.2977 C   0  0  0  0  0  0  0  0  0  0  0  0
   -0.4195   -1.8559   -0.1334 C   0  0  0  0  0  0  0  0  0  0  0  0
   -1.5941   -2.5940   -0.0522 C   0  0  0  0  0  0  0  0  0  0  0  0
   -2.4543   -2.6531   -1.1496 C   0  0  0  0  0  0  0  0  0  0  0  0
   -2.0923   -2.0358   -2.3422 C   0  0  0  0  0  0  0  0  0  0  0  0
   -0.9176   -1.2924   -2.4070 C   0  0  0  0  0  0  0  0  0  0  0  0
   -3.6789   -3.2715   -1.0739 O   0  0  0  0  0  0  0  0  0  0  0  0
   -4.5581   -2.6707   -0.1156 C   0  0  0  0  0  0  0  0  0  0  0  0
   -4.9210   -1.2380   -0.5210 C   0  0  0  0  0  0  0  0  0  0  0  0
   -5.3839   -0.3381    0.6378 C   0  0  0  0  0  0  0  0  0  0  0  0
   -4.4436   -0.3777    1.8357 C   0  0  0  0  0  0  0  0  0  0  0  0
   -4.6642   -1.1331    2.7714 O   0  0  0  0  0  0  0  0  0  0  0  0
   -3.3432    0.4327    1.8452 N   0  0  0  0  0  0  0  0  0  0  0  0
   -2.7637    1.1966    0.7634 C   0  0  2  0  0  0  0  0  0  0  0  0
   -1.2332    1.0162    0.8785 C   0  0  0  0  0  0  0  0  0  0  0  0
   -0.7416    0.5746    1.9114 O   0  0  0  0  0  0  0  0  0  0  0  0
   -0.5117    1.3734   -0.2058 N   0  0  0  0  0  0  0  0  0  0  0  0
   -3.1684    2.6795    0.8242 C   0  0  0  0  0  0  0  0  0  0  0  0
   -2.9814    3.4005   -0.5037 C   0  0  0  0  0  0  0  0  0  0  0  0
   -2.6387    2.8266   -1.5302 O   0  0  0  0  0  0  0  0  0  0  0  0
   -3.2573    4.7266   -0.4830 N   0  0  0  0  0  0  0  0  0  0  0  0
    1.7051    2.2387   -0.7111 C   0  0  2  0  0  0  0  0  0  0  0  0
    1.2755    2.8060   -1.9365 O   0  0  0  0  0  0  0  0  0  0  0  0
    3.2164    1.9992   -0.7400 C   0  0  0  0  0  0  0  0  0  0  0  0
    3.7001    1.6042    0.5795 N   0  0  0  0  0  0  0  0  0  0  0  0
    5.0575    0.6384    0.6815 S   0  0  0  0  0  0  0  0  0  0  0  0
    5.5231    0.8035    2.0478 O   0  0  0  0  0  0  0  0  0  0  0  0
    5.9416    0.8718   -0.4511 O   0  0  0  0  0  0  0  0  0  0  0  0
    4.3514   -0.9779    0.4727 C   0  0  0  0  0  0  0  0  0  0  0  0
    4.6670   -1.7146   -0.6622 C   0  0  0  0  0  0  0  0  0  0  0  0
    4.0741   -2.9631   -0.8407 C   0  0  0  0  0  0  0  0  0  0  0  0
    3.1875   -3.4549    0.1112 C   0  0  0  0  0  0  0  0  0  0  0  0
    2.8954   -2.7115    1.2558 C   0  0  0  0  0  0  0  0  0  0  0  0
    3.4767   -1.4647    1.4429 C   0  0  0  0  0  0  0  0  0  0  0  0
    1.1994    0.6756    0.6650 H   0  0  0  0  0  0  0  0  0  0  0  0
    1.1710    0.1957   -2.3479 H   0  0  0  0  0  0  0  0  0  0  0  0
    2.0159   -0.6967   -1.0840 H   0  0  0  0  0  0  0  0  0  0  0  0
    0.2149   -1.7707    0.7459 H   0  0  0  0  0  0  0  0  0  0  0  0
   -1.8617   -3.0980    0.8728 H   0  0  0  0  0  0  0  0  0  0  0  0
   -2.7665   -2.1020   -3.1915 H   0  0  0  0  0  0  0  0  0  0  0  0
   -0.6725   -0.7689   -3.3297 H   0  0  0  0  0  0  0  0  0  0  0  0
   -5.4401   -3.3159   -0.0887 H   0  0  0  0  0  0  0  0  0  0  0  0
   -4.1036   -2.6940    0.8815 H   0  0  0  0  0  0  0  0  0  0  0  0
   -5.6993   -1.2574   -1.2920 H   0  0  0  0  0  0  0  0  0  0  0  0
   -4.0409   -0.7907   -0.9945 H   0  0  0  0  0  0  0  0  0  0  0  0
   -5.5126    0.6852    0.2632 H   0  0  0  0  0  0  0  0  0  0  0  0
   -6.3509   -0.6770    1.0200 H   0  0  0  0  0  0  0  0  0  0  0  0
   -2.6857    0.2318    2.5932 H   0  0  0  0  0  0  0  0  0  0  0  0
   -3.0750    0.8030   -0.2083 H   0  0  0  0  0  0  0  0  0  0  0  0
   -1.0098    1.7208   -1.0208 H   0  0  0  0  0  0  0  0  0  0  0  0
   -4.2306    2.7354    1.0940 H   0  0  0  0  0  0  0  0  0  0  0  0
   -2.6194    3.1967    1.6213 H   0  0  0  0  0  0  0  0  0  0  0  0
   -3.1450    5.2518   -1.3368 H   0  0  0  0  0  0  0  0  0  0  0  0
   -3.5240    5.2120    0.3580 H   0  0  0  0  0  0  0  0  0  0  0  0
    1.4844    3.0064    0.0401 H   0  0  0  0  0  0  0  0  0  0  0  0
    1.5588    2.2277   -2.6571 H   0  0  0  0  0  0  0  0  0  0  0  0
    3.4573    1.1938   -1.4445 H   0  0  0  0  0  0  0  0  0  0  0  0
    3.7140    2.9036   -1.1106 H   0  0  0  0  0  0  0  0  0  0  0  0
    3.7857    2.3574    1.2556 H   0  0  0  0  0  0  0  0  0  0  0  0
    5.3656   -1.3065   -1.3866 H   0  0  0  0  0  0  0  0  0  0  0  0
    4.3060   -3.5488   -1.7258 H   0  0  0  0  0  0  0  0  0  0  0  0
    2.7197   -4.4248   -0.0347 H   0  0  0  0  0  0  0  0  0  0  0  0
    2.2101   -3.1052    2.0016 H   0  0  0  0  0  0  0  0  0  0  0  0
    3.2556   -0.8697    2.3248 H   0  0  0  0  0  0  0  0  0  0  0  0
  1 19  1  0  0  0  0
  1 37  1  1  0  0  0
  2  3  1  0  0  0  0
  2 39  1  0  0  0  0
  2  1  1  0  0  0  0
  3  4  2  0  0  0  0
  4  5  1  0  0  0  0
  4 40  1  0  0  0  0
  5 41  1  0  0  0  0
  6  9  1  0  0  0  0
  6  5  2  0  0  0  0
  7  6  1  0  0  0  0
  8  7  2  0  0  0  0
  8  3  1  0  0  0  0
  9 10  1  0  0  0  0
 10 44  1  0  0  0  0
 10 45  1  0  0  0  0
 11 10  1  0  0  0  0
 11 12  1  0  0  0  0
 12 49  1  0  0  0  0
 12 13  1  0  0  0  0
 13 15  1  0  0  0  0
 13 14  2  0  0  0  0
 15 50  1  0  0  0  0
 16 51  1  6  0  0  0
 16 20  1  0  0  0  0
 16 17  1  0  0  0  0
 16 15  1  0  0  0  0
 17 18  2  0  0  0  0
 19 17  1  0  0  0  0
 20 53  1  0  0  0  0
 20 54  1  0  0  0  0
 21 23  1  0  0  0  0
 21 20  1  0  0  0  0
 22 21  2  0  0  0  0
 23 56  1  0  0  0  0
 24  1  1  0  0  0  0
 24 57  1  1  0  0  0
 25 24  1  0  0  0  0
 26 24  1  0  0  0  0
 26 27  1  0  0  0  0
 27 28  1  0  0  0  0
 27 61  1  0  0  0  0
 28 29  2  0  0  0  0
 30 28  2  0  0  0  0
 31 28  1  0  0  0  0
 31 36  2  0  0  0  0
 32 31  1  0  0  0  0
 33 32  2  0  0  0  0
 33 34  1  0  0  0  0
 34 35  2  0  0  0  0
 35 36  1  0  0  0  0
 35 65  1  0  0  0  0
 36 66  1  0  0  0  0
 38  2  1  0  0  0  0
 42  7  1  0  0  0  0
 43  8  1  0  0  0  0
 46 11  1  0  0  0  0
 47 11  1  0  0  0  0
 48 12  1  0  0  0  0
 52 19  1  0  0  0  0
 55 23  1  0  0  0  0
 58 25  1  0  0  0  0
 59 26  1  0  0  0  0
 60 26  1  0  0  0  0
 62 32  1  0  0  0  0
 63 33  1  0  0  0  0
 64 34  1  0  0  0  0
M  END
