omegapdb_1qxw_13.log
 OpenBabel09261812563D

 36 36  0  0  1  0  0  0  0  0999 V2000
    4.8319   -1.0904    0.1273 C   0  0  0  0  0  0  0  0  0  0  0  0
    3.7671   -2.0935   -0.2416 C   0  0  0  0  0  0  0  0  0  0  0  0
    3.5978   -0.6345   -0.5788 C   0  0  0  0  0  0  0  0  0  0  0  0
    2.6495    0.1989    0.1123 N   0  0  0  0  0  0  0  0  0  0  0  0
    1.2585   -0.0742   -0.2383 C   0  0  0  0  0  0  0  0  0  0  0  0
    0.4060    1.0439    0.3600 C   0  0  0  0  0  0  0  0  0  0  0  0
   -1.0458    1.0823   -0.1418 C   0  0  1  0  0  0  0  0  0  0  0  0
   -1.0279    1.3388   -1.5786 N   0  0  0  0  0  0  0  0  0  0  0  0
   -1.8084   -0.2041    0.1705 C   0  0  0  0  0  0  0  0  0  0  0  0
   -3.3045   -0.1129   -0.1288 C   0  0  0  0  0  0  0  0  0  0  0  0
   -4.0704   -1.3687    0.2855 C   0  0  0  0  0  0  0  0  0  0  0  0
   -5.5615   -1.2850   -0.0300 C   0  0  0  0  0  0  0  0  0  0  0  0
    0.9723    2.2868    0.0406 O   0  0  0  0  0  0  0  0  0  0  0  0
    0.4480    0.8443    1.7653 O   0  0  0  0  0  0  0  0  0  0  0  0
    4.9364   -0.8315    1.1787 H   0  0  0  0  0  0  0  0  0  0  0  0
    5.7699   -1.0975   -0.4199 H   0  0  0  0  0  0  0  0  0  0  0  0
    3.1581   -2.4936    0.5659 H   0  0  0  0  0  0  0  0  0  0  0  0
    3.9713   -2.7984   -1.0427 H   0  0  0  0  0  0  0  0  0  0  0  0
    3.7040   -0.3622   -1.6275 H   0  0  0  0  0  0  0  0  0  0  0  0
    2.7515    0.0937    1.1188 H   0  0  0  0  0  0  0  0  0  0  0  0
    0.9074   -1.0523    0.1214 H   0  0  0  0  0  0  0  0  0  0  0  0
    1.1486   -0.0482   -1.3267 H   0  0  0  0  0  0  0  0  0  0  0  0
   -1.5200    1.9052    0.4307 H   0  0  0  0  0  0  0  0  0  0  0  0
   -0.4862    2.1836   -1.7401 H   0  0  0  0  0  0  0  0  0  0  0  0
   -1.9698    1.5215   -1.9109 H   0  0  0  0  0  0  0  0  0  0  0  0
   -1.6594   -0.4424    1.2308 H   0  0  0  0  0  0  0  0  0  0  0  0
   -1.3762   -1.0258   -0.4159 H   0  0  0  0  0  0  0  0  0  0  0  0
   -3.4629    0.0546   -1.2041 H   0  0  0  0  0  0  0  0  0  0  0  0
   -3.7318    0.7594    0.3890 H   0  0  0  0  0  0  0  0  0  0  0  0
   -3.6338   -2.2400   -0.2215 H   0  0  0  0  0  0  0  0  0  0  0  0
   -3.9281   -1.5382    1.3616 H   0  0  0  0  0  0  0  0  0  0  0  0
   -6.0265   -0.4377    0.4881 H   0  0  0  0  0  0  0  0  0  0  0  0
   -6.0891   -2.1946    0.2760 H   0  0  0  0  0  0  0  0  0  0  0  0
   -5.7286   -1.1470   -1.1049 H   0  0  0  0  0  0  0  0  0  0  0  0
    1.9332    2.1092    0.0095 H   0  0  0  0  0  0  0  0  0  0  0  0
    0.1945    1.6922    2.1560 H   0  0  0  0  0  0  0  0  0  0  0  0
  1 15  1  0  0  0  0
  2  1  1  0  0  0  0
  2 17  1  0  0  0  0
  3  2  1  0  0  0  0
  3  4  1  0  0  0  0
  3  1  1  0  0  0  0
  4 20  1  0  0  0  0
  5  4  1  0  0  0  0
  5 21  1  0  0  0  0
  5  6  1  0  0  0  0
  6 14  1  0  0  0  0
  7  9  1  0  0  0  0
  7  6  1  0  0  0  0
  7 23  1  1  0  0  0
  8  7  1  0  0  0  0
  9 26  1  0  0  0  0
 10  9  1  0  0  0  0
 10 11  1  0  0  0  0
 10 29  1  0  0  0  0
 11 31  1  0  0  0  0
 12 33  1  0  0  0  0
 12 11  1  0  0  0  0
 12 32  1  0  0  0  0
 13  6  1  0  0  0  0
 14 36  1  0  0  0  0
 16  1  1  0  0  0  0
 18  2  1  0  0  0  0
 19  3  1  0  0  0  0
 22  5  1  0  0  0  0
 24  8  1  0  0  0  0
 25  8  1  0  0  0  0
 27  9  1  0  0  0  0
 28 10  1  0  0  0  0
 30 11  1  0  0  0  0
 34 12  1  0  0  0  0
 35 13  1  0  0  0  0
M  END
