omegacsd_FABSOQ10_07.log
 OpenBabel09261812563D

 45 47  0  0  1  0  0  0  0  0999 V2000
    0.0000   -1.7371   -1.2235 S   0  0  0  0  0  0  0  0  0  0  0  0
    1.2456   -2.2705   -0.1463 C   0  0  0  0  0  0  0  0  0  0  0  0
    0.7153   -2.8298    0.9757 C   0  0  0  0  0  0  0  0  0  0  0  0
   -0.7159   -2.8298    0.9755 C   0  0  0  0  0  0  0  0  0  0  0  0
   -1.2459   -2.2703   -0.1466 C   0  0  0  0  0  0  0  0  0  0  0  0
   -2.7116   -2.0823   -0.4796 C   0  0  1  0  0  0  0  0  0  0  0  0
   -3.5002   -2.9674    0.2945 O   0  0  0  0  0  0  0  0  0  0  0  0
   -3.1785   -0.6687   -0.1990 C   0  0  0  0  0  0  0  0  0  0  0  0
   -3.3040    0.2572   -1.2233 C   0  0  0  0  0  0  0  0  0  0  0  0
   -3.6944    1.5739   -0.9705 C   0  0  0  0  0  0  0  0  0  0  0  0
   -3.9733    1.9627    0.3369 C   0  0  0  0  0  0  0  0  0  0  0  0
   -4.3672    3.2116    0.7047 O   0  0  0  0  0  0  0  0  0  0  0  0
   -4.4904    4.1819   -0.3111 C   0  0  0  0  0  0  0  0  0  0  0  0
   -3.8571    1.0322    1.3775 C   0  0  0  0  0  0  0  0  0  0  0  0
   -3.4604   -0.2640    1.1103 C   0  0  0  0  0  0  0  0  0  0  0  0
    2.7114   -2.0826   -0.4790 C   0  0  2  0  0  0  0  0  0  0  0  0
    3.4998   -2.9676    0.2955 O   0  0  0  0  0  0  0  0  0  0  0  0
    3.1784   -0.6690   -0.1986 C   0  0  0  0  0  0  0  0  0  0  0  0
    3.3049    0.2565   -1.2232 C   0  0  0  0  0  0  0  0  0  0  0  0
    3.6954    1.5732   -0.9706 C   0  0  0  0  0  0  0  0  0  0  0  0
    3.9734    1.9624    0.3369 C   0  0  0  0  0  0  0  0  0  0  0  0
    4.3673    3.2113    0.7046 O   0  0  0  0  0  0  0  0  0  0  0  0
    4.4914    4.1813   -0.3115 C   0  0  0  0  0  0  0  0  0  0  0  0
    3.8561    1.0324    1.3778 C   0  0  0  0  0  0  0  0  0  0  0  0
    3.4593   -0.2638    1.1107 C   0  0  0  0  0  0  0  0  0  0  0  0
    1.3276   -3.2188    1.7827 H   0  0  0  0  0  0  0  0  0  0  0  0
   -1.3284   -3.2187    1.7824 H   0  0  0  0  0  0  0  0  0  0  0  0
   -2.8555   -2.2796   -1.5549 H   0  0  0  0  0  0  0  0  0  0  0  0
   -3.1396   -3.8552    0.1667 H   0  0  0  0  0  0  0  0  0  0  0  0
   -3.0976   -0.0412   -2.2502 H   0  0  0  0  0  0  0  0  0  0  0  0
   -3.7814    2.2712   -1.7970 H   0  0  0  0  0  0  0  0  0  0  0  0
   -3.5327    4.3553   -0.8192 H   0  0  0  0  0  0  0  0  0  0  0  0
   -5.2450    3.8928   -1.0543 H   0  0  0  0  0  0  0  0  0  0  0  0
   -4.8070    5.1011    0.1844 H   0  0  0  0  0  0  0  0  0  0  0  0
   -4.0838    1.3585    2.3883 H   0  0  0  0  0  0  0  0  0  0  0  0
   -3.3757   -0.9857    1.9182 H   0  0  0  0  0  0  0  0  0  0  0  0
    2.8555   -2.2802   -1.5542 H   0  0  0  0  0  0  0  0  0  0  0  0
    3.1393   -3.8554    0.1676 H   0  0  0  0  0  0  0  0  0  0  0  0
    3.0992   -0.0422   -2.2500 H   0  0  0  0  0  0  0  0  0  0  0  0
    3.7833    2.2701   -1.7973 H   0  0  0  0  0  0  0  0  0  0  0  0
    5.2465    3.8918   -1.0541 H   0  0  0  0  0  0  0  0  0  0  0  0
    3.5341    4.3547   -0.8203 H   0  0  0  0  0  0  0  0  0  0  0  0
    4.8079    5.1006    0.1838 H   0  0  0  0  0  0  0  0  0  0  0  0
    4.0822    1.3590    2.3887 H   0  0  0  0  0  0  0  0  0  0  0  0
    3.3738   -0.9851    1.9188 H   0  0  0  0  0  0  0  0  0  0  0  0
  1  5  1  0  0  0  0
  1  2  1  0  0  0  0
  2  3  2  0  0  0  0
  3 26  1  0  0  0  0
  4  3  1  0  0  0  0
  4 27  1  0  0  0  0
  5  4  2  0  0  0  0
  6 28  1  6  0  0  0
  6  8  1  0  0  0  0
  6  5  1  0  0  0  0
  6  7  1  0  0  0  0
  8 15  2  0  0  0  0
  9 10  2  0  0  0  0
  9  8  1  0  0  0  0
 10 11  1  0  0  0  0
 11 12  1  0  0  0  0
 11 14  2  0  0  0  0
 13 34  1  0  0  0  0
 13 12  1  0  0  0  0
 14 35  1  0  0  0  0
 15 14  1  0  0  0  0
 15 36  1  0  0  0  0
 16 37  1  6  0  0  0
 16 18  1  0  0  0  0
 16  2  1  0  0  0  0
 16 17  1  0  0  0  0
 18 25  2  0  0  0  0
 19 20  2  0  0  0  0
 19 18  1  0  0  0  0
 20 21  1  0  0  0  0
 21 22  1  0  0  0  0
 21 24  2  0  0  0  0
 23 43  1  0  0  0  0
 23 22  1  0  0  0  0
 24 44  1  0  0  0  0
 25 24  1  0  0  0  0
 25 45  1  0  0  0  0
 29  7  1  0  0  0  0
 30  9  1  0  0  0  0
 31 10  1  0  0  0  0
 32 13  1  0  0  0  0
 33 13  1  0  0  0  0
 38 17  1  0  0  0  0
 39 19  1  0  0  0  0
 40 20  1  0  0  0  0
 41 23  1  0  0  0  0
 42 23  1  0  0  0  0
M  END
