omegapdb_1z1r_26.log
 OpenBabel09261812563D

 66 68  0  0  1  0  0  0  0  0999 V2000
    0.2756   -1.6717   -2.2279 C   0  0  2  0  0  0  0  0  0  0  0  0
    1.5987   -2.4705   -2.2545 C   0  0  0  0  0  0  0  0  0  0  0  0
    2.6120   -2.0710   -1.2145 C   0  0  0  0  0  0  0  0  0  0  0  0
    2.4845   -2.5071    0.1076 C   0  0  0  0  0  0  0  0  0  0  0  0
    3.3429   -2.0505    1.1008 C   0  0  0  0  0  0  0  0  0  0  0  0
    4.3463   -1.1303    0.7834 C   0  0  0  0  0  0  0  0  0  0  0  0
    4.5258   -0.7371   -0.5416 C   0  0  0  0  0  0  0  0  0  0  0  0
    3.6654   -1.2091   -1.5264 C   0  0  0  0  0  0  0  0  0  0  0  0
    5.2102   -0.6141    1.7076 O   0  0  0  0  0  0  0  0  0  0  0  0
    4.6772   -0.1542    2.9454 C   0  0  0  0  0  0  0  0  0  0  0  0
    4.1623    1.2799    2.8837 C   0  0  0  0  0  0  0  0  0  0  0  0
    2.9701    1.5105    1.9472 C   0  0  0  0  0  0  0  0  0  0  0  0
    3.3888    2.0061    0.5661 C   0  0  0  0  0  0  0  0  0  0  0  0
    4.4563    2.5646    0.3794 O   0  0  0  0  0  0  0  0  0  0  0  0
    2.4702    1.9198   -0.4544 N   0  0  0  0  0  0  0  0  0  0  0  0
    1.3560    0.9887   -0.5740 C   0  0  2  0  0  0  0  0  0  0  0  0
    1.1321    0.7972   -2.0872 C   0  0  0  0  0  0  0  0  0  0  0  0
    1.4902    1.6908   -2.8450 O   0  0  0  0  0  0  0  0  0  0  0  0
    0.4241   -0.2583   -2.5981 N   0  0  0  0  0  0  0  0  0  0  0  0
    0.0716    1.5400    0.0892 C   0  0  0  0  0  0  0  0  0  0  0  0
   -0.6222    2.6182   -0.7253 C   0  0  0  0  0  0  0  0  0  0  0  0
   -1.7240    2.4371   -1.2325 O   0  0  0  0  0  0  0  0  0  0  0  0
    0.0472    3.7944   -0.8309 N   0  0  0  0  0  0  0  0  0  0  0  0
   -0.5767   -1.8872   -0.9717 C   0  0  2  0  0  0  0  0  0  0  0  0
   -0.6062   -3.2826   -0.7548 O   0  0  0  0  0  0  0  0  0  0  0  0
   -2.0135   -1.3736   -1.1793 C   0  0  0  0  0  0  0  0  0  0  0  0
   -2.8952   -1.9666   -0.1657 N   0  0  0  0  0  0  0  0  0  0  0  0
   -3.2805   -1.1547    1.2375 S   0  0  0  0  0  0  0  0  0  0  0  0
   -3.8458   -2.1547    2.1246 O   0  0  0  0  0  0  0  0  0  0  0  0
   -2.0822   -0.4051    1.5831 O   0  0  0  0  0  0  0  0  0  0  0  0
   -4.5763   -0.0102    0.8300 C   0  0  0  0  0  0  0  0  0  0  0  0
   -5.8893   -0.3464    1.1524 C   0  0  0  0  0  0  0  0  0  0  0  0
   -6.9109    0.5317    0.8085 C   0  0  0  0  0  0  0  0  0  0  0  0
   -6.6146    1.7226    0.1492 C   0  0  0  0  0  0  0  0  0  0  0  0
   -5.2965    2.0452   -0.1628 C   0  0  0  0  0  0  0  0  0  0  0  0
   -4.2623    1.1812    0.1809 C   0  0  0  0  0  0  0  0  0  0  0  0
   -0.3254   -2.0902   -3.0452 H   0  0  0  0  0  0  0  0  0  0  0  0
    1.3316   -3.5253   -2.1413 H   0  0  0  0  0  0  0  0  0  0  0  0
    2.0291   -2.3470   -3.2558 H   0  0  0  0  0  0  0  0  0  0  0  0
    1.6876   -3.2045    0.3587 H   0  0  0  0  0  0  0  0  0  0  0  0
    3.2282   -2.4134    2.1181 H   0  0  0  0  0  0  0  0  0  0  0  0
    5.3140   -0.0249   -0.7674 H   0  0  0  0  0  0  0  0  0  0  0  0
    3.7989   -0.8726   -2.5536 H   0  0  0  0  0  0  0  0  0  0  0  0
    5.5086   -0.2128    3.6539 H   0  0  0  0  0  0  0  0  0  0  0  0
    3.8897   -0.8290    3.3043 H   0  0  0  0  0  0  0  0  0  0  0  0
    4.9735    1.9458    2.5739 H   0  0  0  0  0  0  0  0  0  0  0  0
    3.8808    1.5555    3.9076 H   0  0  0  0  0  0  0  0  0  0  0  0
    2.3339    0.6210    1.8779 H   0  0  0  0  0  0  0  0  0  0  0  0
    2.3323    2.3047    2.3593 H   0  0  0  0  0  0  0  0  0  0  0  0
    2.8286    2.2414   -1.3479 H   0  0  0  0  0  0  0  0  0  0  0  0
    1.6037    0.0337   -0.1027 H   0  0  0  0  0  0  0  0  0  0  0  0
    0.3260   -0.0989   -3.5935 H   0  0  0  0  0  0  0  0  0  0  0  0
   -0.6514    0.7435    0.2662 H   0  0  0  0  0  0  0  0  0  0  0  0
    0.3470    1.9402    1.0709 H   0  0  0  0  0  0  0  0  0  0  0  0
    1.0410    3.7995   -0.6418 H   0  0  0  0  0  0  0  0  0  0  0  0
   -0.2960    4.4449   -1.5232 H   0  0  0  0  0  0  0  0  0  0  0  0
   -0.1361   -1.3822   -0.0994 H   0  0  0  0  0  0  0  0  0  0  0  0
   -1.2928   -3.4241   -0.0831 H   0  0  0  0  0  0  0  0  0  0  0  0
   -2.3765   -1.7226   -2.1522 H   0  0  0  0  0  0  0  0  0  0  0  0
   -2.0561   -0.2782   -1.1870 H   0  0  0  0  0  0  0  0  0  0  0  0
   -3.6828   -2.4993   -0.5155 H   0  0  0  0  0  0  0  0  0  0  0  0
   -6.0926   -1.2739    1.6792 H   0  0  0  0  0  0  0  0  0  0  0  0
   -7.9393    0.2876    1.0601 H   0  0  0  0  0  0  0  0  0  0  0  0
   -7.4167    2.4057   -0.1182 H   0  0  0  0  0  0  0  0  0  0  0  0
   -5.0603    2.9748   -0.6726 H   0  0  0  0  0  0  0  0  0  0  0  0
   -3.2358    1.4481   -0.0598 H   0  0  0  0  0  0  0  0  0  0  0  0
  1 37  1  6  0  0  0
  1 24  1  0  0  0  0
  2  1  1  0  0  0  0
  2 38  1  0  0  0  0
  2  3  1  0  0  0  0
  3  4  1  0  0  0  0
  4 40  1  0  0  0  0
  4  5  2  0  0  0  0
  5 41  1  0  0  0  0
  6  5  1  0  0  0  0
  6  9  1  0  0  0  0
  7  6  2  0  0  0  0
  8  3  2  0  0  0  0
  8  7  1  0  0  0  0
  9 10  1  0  0  0  0
 10 45  1  0  0  0  0
 10 44  1  0  0  0  0
 11 10  1  0  0  0  0
 11 47  1  0  0  0  0
 12 49  1  0  0  0  0
 12 11  1  0  0  0  0
 13 12  1  0  0  0  0
 14 13  2  0  0  0  0
 15 13  1  0  0  0  0
 16 15  1  0  0  0  0
 16 51  1  1  0  0  0
 16 20  1  0  0  0  0
 17 16  1  0  0  0  0
 18 17  2  0  0  0  0
 19  1  1  0  0  0  0
 19 17  1  0  0  0  0
 20 53  1  0  0  0  0
 20 54  1  0  0  0  0
 21 20  1  0  0  0  0
 22 21  2  0  0  0  0
 23 21  1  0  0  0  0
 23 55  1  0  0  0  0
 24 25  1  0  0  0  0
 24 57  1  1  0  0  0
 25 58  1  0  0  0  0
 26 24  1  0  0  0  0
 26 27  1  0  0  0  0
 27 28  1  0  0  0  0
 28 30  2  0  0  0  0
 28 29  2  0  0  0  0
 31 32  1  0  0  0  0
 31 28  1  0  0  0  0
 32 62  1  0  0  0  0
 33 63  1  0  0  0  0
 33 32  2  0  0  0  0
 34 33  1  0  0  0  0
 35 34  2  0  0  0  0
 35 36  1  0  0  0  0
 36 31  2  0  0  0  0
 39  2  1  0  0  0  0
 42  7  1  0  0  0  0
 43  8  1  0  0  0  0
 46 11  1  0  0  0  0
 48 12  1  0  0  0  0
 50 15  1  0  0  0  0
 52 19  1  0  0  0  0
 56 23  1  0  0  0  0
 59 26  1  0  0  0  0
 60 26  1  0  0  0  0
 61 27  1  0  0  0  0
 64 34  1  0  0  0  0
 65 35  1  0  0  0  0
 66 36  1  0  0  0  0
M  END
