omegapdb_1qxw_28.log
 OpenBabel09261812563D

 36 36  0  0  1  0  0  0  0  0999 V2000
    4.1686   -1.8227   -0.6323 C   0  0  0  0  0  0  0  0  0  0  0  0
    4.5998   -0.4782   -0.1008 C   0  0  0  0  0  0  0  0  0  0  0  0
    3.3142   -1.1154    0.3663 C   0  0  0  0  0  0  0  0  0  0  0  0
    2.0277   -0.6086   -0.0280 N   0  0  0  0  0  0  0  0  0  0  0  0
    1.6933    0.6589    0.5942 C   0  0  0  0  0  0  0  0  0  0  0  0
    0.3915    1.2092    0.0144 C   0  0  0  0  0  0  0  0  0  0  0  0
   -0.7850    0.2035    0.0639 C   0  0  1  0  0  0  0  0  0  0  0  0
   -0.9259   -0.4431    1.3617 N   0  0  0  0  0  0  0  0  0  0  0  0
   -2.0946    0.8816   -0.3603 C   0  0  0  0  0  0  0  0  0  0  0  0
   -3.2127   -0.0719   -0.7974 C   0  0  0  0  0  0  0  0  0  0  0  0
   -3.9200   -0.8217    0.3323 C   0  0  0  0  0  0  0  0  0  0  0  0
   -5.0598   -1.6960   -0.1848 C   0  0  0  0  0  0  0  0  0  0  0  0
    0.1264    2.3754    0.7590 O   0  0  0  0  0  0  0  0  0  0  0  0
    0.5753    1.5294   -1.3538 O   0  0  0  0  0  0  0  0  0  0  0  0
    4.7110   -2.7090   -0.3166 H   0  0  0  0  0  0  0  0  0  0  0  0
    3.8101   -1.8672   -1.6584 H   0  0  0  0  0  0  0  0  0  0  0  0
    5.4458   -0.4346    0.5797 H   0  0  0  0  0  0  0  0  0  0  0  0
    4.5209    0.3717   -0.7753 H   0  0  0  0  0  0  0  0  0  0  0  0
    3.3146   -1.5163    1.3792 H   0  0  0  0  0  0  0  0  0  0  0  0
    1.9862   -0.4945   -1.0379 H   0  0  0  0  0  0  0  0  0  0  0  0
    2.4734    1.4321    0.4639 H   0  0  0  0  0  0  0  0  0  0  0  0
    1.5769    0.5135    1.6736 H   0  0  0  0  0  0  0  0  0  0  0  0
   -0.5499   -0.5804   -0.6644 H   0  0  0  0  0  0  0  0  0  0  0  0
   -0.9329    0.2657    2.0925 H   0  0  0  0  0  0  0  0  0  0  0  0
   -0.1178   -1.0391    1.5218 H   0  0  0  0  0  0  0  0  0  0  0  0
   -1.8680    1.5538   -1.1977 H   0  0  0  0  0  0  0  0  0  0  0  0
   -2.4658    1.5039    0.4700 H   0  0  0  0  0  0  0  0  0  0  0  0
   -3.9631    0.5105   -1.3516 H   0  0  0  0  0  0  0  0  0  0  0  0
   -2.8035   -0.7958   -1.5176 H   0  0  0  0  0  0  0  0  0  0  0  0
   -4.3152   -0.0892    1.0511 H   0  0  0  0  0  0  0  0  0  0  0  0
   -3.1910   -1.4228    0.8839 H   0  0  0  0  0  0  0  0  0  0  0  0
   -5.8122   -1.0984   -0.7147 H   0  0  0  0  0  0  0  0  0  0  0  0
   -4.6882   -2.4535   -0.8858 H   0  0  0  0  0  0  0  0  0  0  0  0
   -5.5655   -2.2203    0.6333 H   0  0  0  0  0  0  0  0  0  0  0  0
   -0.6848    2.7602    0.3978 H   0  0  0  0  0  0  0  0  0  0  0  0
    1.2212    2.2502   -1.3774 H   0  0  0  0  0  0  0  0  0  0  0  0
  1 15  1  0  0  0  0
  1  2  1  0  0  0  0
  1  3  1  0  0  0  0
  2  3  1  0  0  0  0
  2 17  1  0  0  0  0
  3 19  1  0  0  0  0
  4  3  1  0  0  0  0
  4  5  1  0  0  0  0
  5 22  1  0  0  0  0
  6  7  1  0  0  0  0
  6  5  1  0  0  0  0
  6 13  1  0  0  0  0
  7 23  1  6  0  0  0
  7  8  1  0  0  0  0
  8 25  1  0  0  0  0
  8 24  1  0  0  0  0
  9  7  1  0  0  0  0
  9 27  1  0  0  0  0
 10  9  1  0  0  0  0
 10 11  1  0  0  0  0
 11 31  1  0  0  0  0
 11 30  1  0  0  0  0
 12 11  1  0  0  0  0
 12 34  1  0  0  0  0
 14  6  1  0  0  0  0
 16  1  1  0  0  0  0
 18  2  1  0  0  0  0
 20  4  1  0  0  0  0
 21  5  1  0  0  0  0
 26  9  1  0  0  0  0
 28 10  1  0  0  0  0
 29 10  1  0  0  0  0
 32 12  1  0  0  0  0
 33 12  1  0  0  0  0
 35 13  1  0  0  0  0
 36 14  1  0  0  0  0
M  END
