omegapdb_2byh_11.log
 OpenBabel09261812563D

 40 42  0  0  0  0  0  0  0  0999 V2000
    7.6474    0.3064   -0.4916 O   0  0  0  0  0  0  0  0  0  0  0  0
    6.7332    0.9033    0.0454 C   0  0  0  0  0  0  0  0  0  0  0  0
    6.9779    2.2181    0.7565 C   0  0  0  0  0  0  0  0  0  0  0  0
    5.3430    0.3535    0.0169 C   0  0  0  0  0  0  0  0  0  0  0  0
    4.2572    0.9918    0.6168 C   0  0  0  0  0  0  0  0  0  0  0  0
    2.9768    0.4532    0.5689 C   0  0  0  0  0  0  0  0  0  0  0  0
    2.7706   -0.7595   -0.0962 C   0  0  0  0  0  0  0  0  0  0  0  0
    3.8572   -1.4089   -0.7007 C   0  0  0  0  0  0  0  0  0  0  0  0
    5.1230   -0.8586   -0.6439 C   0  0  0  0  0  0  0  0  0  0  0  0
    1.5191   -1.3881   -0.1985 N   0  0  0  0  0  0  0  0  0  0  0  0
    0.2969   -0.9565    0.2722 C   0  0  0  0  0  0  0  0  0  0  0  0
    0.1389    0.1143    0.8382 O   0  0  0  0  0  0  0  0  0  0  0  0
   -0.7959   -1.9291    0.0372 C   0  0  0  0  0  0  0  0  0  0  0  0
   -0.6489   -3.3315   -0.0906 C   0  0  0  0  0  0  0  0  0  0  0  0
   -1.8096   -3.9463   -0.2117 N   0  0  0  0  0  0  0  0  0  0  0  0
   -2.7062   -2.9547   -0.1745 N   0  0  0  0  0  0  0  0  0  0  0  0
   -2.1789   -1.7187   -0.0138 C   0  0  0  0  0  0  0  0  0  0  0  0
   -3.0336   -0.5148    0.0130 C   0  0  0  0  0  0  0  0  0  0  0  0
   -2.5096    0.7463   -0.2943 C   0  0  0  0  0  0  0  0  0  0  0  0
   -3.2878    1.8890   -0.2913 C   0  0  0  0  0  0  0  0  0  0  0  0
   -2.5859    3.4238   -0.6796 Cl  0  0  0  0  0  0  0  0  0  0  0  0
   -4.6475    1.8135    0.0257 C   0  0  0  0  0  0  0  0  0  0  0  0
   -5.3760    2.9497    0.0217 O   0  0  0  0  0  0  0  0  0  0  0  0
   -5.1936    0.5689    0.3245 C   0  0  0  0  0  0  0  0  0  0  0  0
   -4.4034   -0.5767    0.3147 C   0  0  0  0  0  0  0  0  0  0  0  0
   -4.9605   -1.7940    0.5934 O   0  0  0  0  0  0  0  0  0  0  0  0
    6.3784    3.0204    0.3124 H   0  0  0  0  0  0  0  0  0  0  0  0
    8.0369    2.4670    0.6735 H   0  0  0  0  0  0  0  0  0  0  0  0
    6.7021    2.1458    1.8145 H   0  0  0  0  0  0  0  0  0  0  0  0
    4.3973    1.9363    1.1366 H   0  0  0  0  0  0  0  0  0  0  0  0
    2.1412    0.9590    1.0323 H   0  0  0  0  0  0  0  0  0  0  0  0
    3.7000   -2.3546   -1.2169 H   0  0  0  0  0  0  0  0  0  0  0  0
    5.9701   -1.3537   -1.1096 H   0  0  0  0  0  0  0  0  0  0  0  0
    1.5093   -2.2332   -0.7500 H   0  0  0  0  0  0  0  0  0  0  0  0
    0.2611   -3.9195   -0.0542 H   0  0  0  0  0  0  0  0  0  0  0  0
   -3.6919   -3.1683   -0.2027 H   0  0  0  0  0  0  0  0  0  0  0  0
   -1.4555    0.8478   -0.5168 H   0  0  0  0  0  0  0  0  0  0  0  0
   -6.2873    2.7490    0.2700 H   0  0  0  0  0  0  0  0  0  0  0  0
   -6.2541    0.4891    0.5616 H   0  0  0  0  0  0  0  0  0  0  0  0
   -5.8881   -1.6777    0.8343 H   0  0  0  0  0  0  0  0  0  0  0  0
  1  2  2  0  0  0  0
  2  3  1  0  0  0  0
  3 29  1  0  0  0  0
  4  2  1  0  0  0  0
  4  5  2  0  0  0  0
  5 30  1  0  0  0  0
  6  5  1  0  0  0  0
  6 31  1  0  0  0  0
  7  6  2  0  0  0  0
  8  9  2  0  0  0  0
  8  7  1  0  0  0  0
  9  4  1  0  0  0  0
 10  7  1  0  0  0  0
 10 11  1  0  0  0  0
 11 12  2  0  0  0  0
 13 11  1  0  0  0  0
 14 35  1  0  0  0  0
 14 13  1  0  0  0  0
 15 16  1  0  0  0  0
 15 14  2  0  0  0  0
 16 17  1  0  0  0  0
 17 18  1  0  0  0  0
 17 13  2  0  0  0  0
 18 25  2  0  0  0  0
 19 20  2  0  0  0  0
 19 18  1  0  0  0  0
 20 22  1  0  0  0  0
 21 20  1  0  0  0  0
 22 24  2  0  0  0  0
 23 22  1  0  0  0  0
 23 38  1  0  0  0  0
 24 39  1  0  0  0  0
 25 24  1  0  0  0  0
 25 26  1  0  0  0  0
 26 40  1  0  0  0  0
 27  3  1  0  0  0  0
 28  3  1  0  0  0  0
 32  8  1  0  0  0  0
 33  9  1  0  0  0  0
 34 10  1  0  0  0  0
 36 16  1  0  0  0  0
 37 19  1  0  0  0  0
M  END
