omegapdb_1m5f_19.log
 OpenBabel09261812563D

 25 25  0  0  1  0  0  0  0  0999 V2000
    2.1805   -2.6455   -0.0446 O   0  0  0  0  0  0  0  0  0  0  0  0
    1.2772   -1.8243    0.4996 C   0  0  0  0  0  0  0  0  0  0  0  0
    0.4040   -2.2165    1.2307 O   0  0  0  0  0  0  0  0  0  0  0  0
    1.4626   -0.3794    0.1612 C   0  0  0  0  0  0  0  0  0  0  0  0
    2.5564   -0.0036   -0.4434 N   0  0  0  0  0  0  0  0  0  0  0  0
    2.4589    1.3489   -0.5926 O   0  0  0  0  0  0  0  0  0  0  0  0
    1.2907    1.7724   -0.0624 C   0  0  0  0  0  0  0  0  0  0  0  0
    0.5995    0.7160    0.4415 C   0  0  0  0  0  0  0  0  0  0  0  0
   -0.7467    0.6782    1.0979 C   0  0  0  0  0  0  0  0  0  0  0  0
   -1.9503    0.6700    0.1378 C   0  0  2  0  0  0  0  0  0  0  0  0
   -3.2396    0.7273    0.8314 N   0  0  0  0  0  0  0  0  0  0  0  0
   -1.9582   -0.5366   -0.8258 C   0  0  0  0  0  0  0  0  0  0  0  0
   -0.9656   -0.9795   -1.3468 O   0  0  0  0  0  0  0  0  0  0  0  0
   -3.1775   -1.0082   -1.0817 O   0  0  0  0  0  0  0  0  0  0  0  0
    1.0194    3.2327   -0.1447 C   0  0  0  0  0  0  0  0  0  0  0  0
    2.7918   -2.1251   -0.5947 H   0  0  0  0  0  0  0  0  0  0  0  0
   -0.7939   -0.2144    1.7302 H   0  0  0  0  0  0  0  0  0  0  0  0
   -0.8597    1.5534    1.7512 H   0  0  0  0  0  0  0  0  0  0  0  0
   -1.8925    1.5510   -0.5160 H   0  0  0  0  0  0  0  0  0  0  0  0
   -3.2062    0.1770    1.6866 H   0  0  0  0  0  0  0  0  0  0  0  0
   -3.4810    1.6769    1.0930 H   0  0  0  0  0  0  0  0  0  0  0  0
   -3.7896   -0.4814   -0.5208 H   0  0  0  0  0  0  0  0  0  0  0  0
    1.8606    3.8056    0.2564 H   0  0  0  0  0  0  0  0  0  0  0  0
    0.8627    3.5432   -1.1828 H   0  0  0  0  0  0  0  0  0  0  0  0
    0.1233    3.4806    0.4308 H   0  0  0  0  0  0  0  0  0  0  0  0
  1  2  1  0  0  0  0
  2  3  2  0  0  0  0
  4  8  1  0  0  0  0
  4  2  1  0  0  0  0
  5  4  2  0  0  0  0
  6  5  1  0  0  0  0
  6  7  1  0  0  0  0
  7  8  2  0  0  0  0
  8  9  1  0  0  0  0
  9 17  1  0  0  0  0
  9 18  1  0  0  0  0
 10 19  1  6  0  0  0
 10 11  1  0  0  0  0
 10  9  1  0  0  0  0
 11 21  1  0  0  0  0
 11 20  1  0  0  0  0
 12 10  1  0  0  0  0
 13 12  2  0  0  0  0
 14 12  1  0  0  0  0
 14 22  1  0  0  0  0
 15  7  1  0  0  0  0
 15 23  1  0  0  0  0
 15 25  1  0  0  0  0
 16  1  1  0  0  0  0
 24 15  1  0  0  0  0
M  END
