omegapdb_1qxw_33.log
 OpenBabel09261812563D

 36 36  0  0  1  0  0  0  0  0999 V2000
   -4.6269   -0.3174   -0.1810 C   0  0  0  0  0  0  0  0  0  0  0  0
   -3.7677   -1.3728    0.4750 C   0  0  0  0  0  0  0  0  0  0  0  0
   -3.4007   -0.8472   -0.8741 C   0  0  0  0  0  0  0  0  0  0  0  0
   -2.1805   -0.0926   -1.0924 N   0  0  0  0  0  0  0  0  0  0  0  0
   -1.7704    0.8756   -0.0750 C   0  0  0  0  0  0  0  0  0  0  0  0
   -0.4278    0.4737    0.5746 C   0  0  0  0  0  0  0  0  0  0  0  0
    0.7859    0.7695   -0.3482 C   0  0  1  0  0  0  0  0  0  0  0  0
    0.9468    2.2309   -0.4026 N   0  0  0  0  0  0  0  0  0  0  0  0
    2.0622    0.1294    0.1968 C   0  0  0  0  0  0  0  0  0  0  0  0
    3.2373    0.1555   -0.7825 C   0  0  0  0  0  0  0  0  0  0  0  0
    4.5261   -0.4419   -0.2090 C   0  0  0  0  0  0  0  0  0  0  0  0
    4.4218   -1.9303    0.1195 C   0  0  0  0  0  0  0  0  0  0  0  0
   -0.4927   -0.8901    0.8915 O   0  0  0  0  0  0  0  0  0  0  0  0
   -0.2706    1.1716    1.7727 O   0  0  0  0  0  0  0  0  0  0  0  0
   -5.6026   -0.6031   -0.5647 H   0  0  0  0  0  0  0  0  0  0  0  0
   -4.5905    0.6854    0.2371 H   0  0  0  0  0  0  0  0  0  0  0  0
   -3.1488   -1.0761    1.3184 H   0  0  0  0  0  0  0  0  0  0  0  0
   -4.1514   -2.3870    0.5428 H   0  0  0  0  0  0  0  0  0  0  0  0
   -3.5798   -1.5217   -1.7087 H   0  0  0  0  0  0  0  0  0  0  0  0
   -2.2412    0.3536   -1.9996 H   0  0  0  0  0  0  0  0  0  0  0  0
   -1.6977    1.8848   -0.5000 H   0  0  0  0  0  0  0  0  0  0  0  0
   -2.4891    0.9415    0.7482 H   0  0  0  0  0  0  0  0  0  0  0  0
    0.5656    0.3306   -1.3368 H   0  0  0  0  0  0  0  0  0  0  0  0
    0.3454    2.6454   -1.1077 H   0  0  0  0  0  0  0  0  0  0  0  0
    1.8983    2.4765   -0.6557 H   0  0  0  0  0  0  0  0  0  0  0  0
    1.8207   -0.9018    0.4683 H   0  0  0  0  0  0  0  0  0  0  0  0
    2.3358    0.6397    1.1308 H   0  0  0  0  0  0  0  0  0  0  0  0
    2.9598   -0.3927   -1.6954 H   0  0  0  0  0  0  0  0  0  0  0  0
    3.4510    1.1863   -1.1025 H   0  0  0  0  0  0  0  0  0  0  0  0
    4.8089    0.1147    0.6951 H   0  0  0  0  0  0  0  0  0  0  0  0
    5.3383   -0.2892   -0.9314 H   0  0  0  0  0  0  0  0  0  0  0  0
    5.3843   -2.3270    0.4595 H   0  0  0  0  0  0  0  0  0  0  0  0
    4.1169   -2.5050   -0.7639 H   0  0  0  0  0  0  0  0  0  0  0  0
    3.6888   -2.1219    0.9101 H   0  0  0  0  0  0  0  0  0  0  0  0
   -0.9197   -1.2966    0.1176 H   0  0  0  0  0  0  0  0  0  0  0  0
    0.2107    1.9790    1.5134 H   0  0  0  0  0  0  0  0  0  0  0  0
  1 16  1  0  0  0  0
  1  2  1  0  0  0  0
  2 18  1  0  0  0  0
  2 17  1  0  0  0  0
  3  1  1  0  0  0  0
  3  2  1  0  0  0  0
  4  3  1  0  0  0  0
  4  5  1  0  0  0  0
  5  6  1  0  0  0  0
  5 22  1  0  0  0  0
  6 13  1  0  0  0  0
  6 14  1  0  0  0  0
  7 23  1  6  0  0  0
  7  9  1  0  0  0  0
  7  6  1  0  0  0  0
  8  7  1  0  0  0  0
  9 26  1  0  0  0  0
  9 27  1  0  0  0  0
 10 11  1  0  0  0  0
 10  9  1  0  0  0  0
 11 12  1  0  0  0  0
 11 30  1  0  0  0  0
 12 32  1  0  0  0  0
 12 34  1  0  0  0  0
 15  1  1  0  0  0  0
 19  3  1  0  0  0  0
 20  4  1  0  0  0  0
 21  5  1  0  0  0  0
 24  8  1  0  0  0  0
 25  8  1  0  0  0  0
 28 10  1  0  0  0  0
 29 10  1  0  0  0  0
 31 11  1  0  0  0  0
 33 12  1  0  0  0  0
 35 13  1  0  0  0  0
 36 14  1  0  0  0  0
M  END
