omegacsd_DIAVER_01.log
 OpenBabel09261812563D

 35 36  0  0  0  0  0  0  0  0999 V2000
    4.2672    0.3923   -1.0846 N   0  0  0  0  0  0  0  0  0  0  0  0
    4.4453    0.4606    0.2387 C   0  0  0  0  0  0  0  0  0  0  0  0
    3.5930    0.0573    1.1907 N   0  0  0  0  0  0  0  0  0  0  0  0
    2.4583   -0.5014    0.7726 C   0  0  0  0  0  0  0  0  0  0  0  0
    2.1539   -0.6611   -0.6011 C   0  0  0  0  0  0  0  0  0  0  0  0
    3.1178   -0.1752   -1.4621 C   0  0  0  0  0  0  0  0  0  0  0  0
    0.8908   -1.3325   -1.0732 C   0  0  0  0  0  0  0  0  0  0  0  0
   -0.3933   -0.6090   -0.6985 C   0  0  0  0  0  0  0  0  0  0  0  0
   -1.4828   -1.3147   -0.1775 C   0  0  0  0  0  0  0  0  0  0  0  0
   -2.6671   -0.6782    0.1642 C   0  0  0  0  0  0  0  0  0  0  0  0
   -2.7906    0.7117   -0.0146 C   0  0  0  0  0  0  0  0  0  0  0  0
   -1.7139    1.4212   -0.5417 C   0  0  0  0  0  0  0  0  0  0  0  0
   -0.5296    0.7643   -0.8734 C   0  0  0  0  0  0  0  0  0  0  0  0
   -3.9751    1.2628    0.3657 O   0  0  0  0  0  0  0  0  0  0  0  0
   -4.1133    2.6618    0.2384 C   0  0  0  0  0  0  0  0  0  0  0  0
   -3.6746   -1.4127    0.7289 O   0  0  0  0  0  0  0  0  0  0  0  0
   -4.8304   -1.5605   -0.0841 C   0  0  0  0  0  0  0  0  0  0  0  0
    1.6070   -0.9580    1.7413 N   0  0  0  0  0  0  0  0  0  0  0  0
    5.6337    0.9797    0.6727 N   0  0  0  0  0  0  0  0  0  0  0  0
    2.9596   -0.2504   -2.5399 H   0  0  0  0  0  0  0  0  0  0  0  0
    0.8436   -2.3554   -0.6744 H   0  0  0  0  0  0  0  0  0  0  0  0
    0.9422   -1.4356   -2.1653 H   0  0  0  0  0  0  0  0  0  0  0  0
   -1.4267   -2.3899   -0.0185 H   0  0  0  0  0  0  0  0  0  0  0  0
   -1.7815    2.4945   -0.6869 H   0  0  0  0  0  0  0  0  0  0  0  0
    0.3054    1.3408   -1.2655 H   0  0  0  0  0  0  0  0  0  0  0  0
   -3.3671    3.1941    0.8420 H   0  0  0  0  0  0  0  0  0  0  0  0
   -5.1120    2.9001    0.6074 H   0  0  0  0  0  0  0  0  0  0  0  0
   -4.0265    2.9819   -0.8080 H   0  0  0  0  0  0  0  0  0  0  0  0
   -5.5156   -2.2018    0.4740 H   0  0  0  0  0  0  0  0  0  0  0  0
   -5.3074   -0.5947   -0.2778 H   0  0  0  0  0  0  0  0  0  0  0  0
   -4.5757   -2.0438   -1.0366 H   0  0  0  0  0  0  0  0  0  0  0  0
    0.6222   -1.0057    1.5205 H   0  0  0  0  0  0  0  0  0  0  0  0
    1.8294   -0.6435    2.6747 H   0  0  0  0  0  0  0  0  0  0  0  0
    6.1592    1.5108   -0.0031 H   0  0  0  0  0  0  0  0  0  0  0  0
    5.6714    1.2765    1.6344 H   0  0  0  0  0  0  0  0  0  0  0  0
  1  2  2  0  0  0  0
  2 19  1  0  0  0  0
  2  3  1  0  0  0  0
  4  3  2  0  0  0  0
  4 18  1  0  0  0  0
  5  4  1  0  0  0  0
  6  1  1  0  0  0  0
  6  5  2  0  0  0  0
  7  8  1  0  0  0  0
  7 21  1  0  0  0  0
  7  5  1  0  0  0  0
  8  9  1  0  0  0  0
  9 23  1  0  0  0  0
  9 10  2  0  0  0  0
 10 16  1  0  0  0  0
 11 10  1  0  0  0  0
 11 14  1  0  0  0  0
 12 11  2  0  0  0  0
 13  8  2  0  0  0  0
 13 12  1  0  0  0  0
 15 14  1  0  0  0  0
 15 27  1  0  0  0  0
 15 26  1  0  0  0  0
 17 29  1  0  0  0  0
 17 16  1  0  0  0  0
 18 33  1  0  0  0  0
 19 35  1  0  0  0  0
 20  6  1  0  0  0  0
 22  7  1  0  0  0  0
 24 12  1  0  0  0  0
 25 13  1  0  0  0  0
 28 15  1  0  0  0  0
 30 17  1  0  0  0  0
 31 17  1  0  0  0  0
 32 18  1  0  0  0  0
 34 19  1  0  0  0  0
M  END
