omegacsd_DIAVER_09.log
 OpenBabel09261812563D

 35 36  0  0  0  0  0  0  0  0999 V2000
   -3.8171    0.8034    1.0044 N   0  0  0  0  0  0  0  0  0  0  0  0
   -4.0604    0.6119   -0.2962 C   0  0  0  0  0  0  0  0  0  0  0  0
   -3.3675   -0.1618   -1.1424 N   0  0  0  0  0  0  0  0  0  0  0  0
   -2.3207   -0.8097   -0.6331 C   0  0  0  0  0  0  0  0  0  0  0  0
   -1.9504   -0.6970    0.7293 C   0  0  0  0  0  0  0  0  0  0  0  0
   -2.7603    0.1353    1.4764 C   0  0  0  0  0  0  0  0  0  0  0  0
   -0.7883   -1.4564    1.3143 C   0  0  0  0  0  0  0  0  0  0  0  0
    0.5668   -1.0938    0.7266 C   0  0  0  0  0  0  0  0  0  0  0  0
    0.9168    0.2527    0.5561 C   0  0  0  0  0  0  0  0  0  0  0  0
    2.1534    0.6081    0.0312 C   0  0  0  0  0  0  0  0  0  0  0  0
    3.0715   -0.4013   -0.3295 C   0  0  0  0  0  0  0  0  0  0  0  0
    2.7211   -1.7287   -0.1651 C   0  0  0  0  0  0  0  0  0  0  0  0
    1.4722   -2.0799    0.3545 C   0  0  0  0  0  0  0  0  0  0  0  0
    4.2775   -0.0876   -0.8962 O   0  0  0  0  0  0  0  0  0  0  0  0
    5.2085    0.5089   -0.0044 C   0  0  0  0  0  0  0  0  0  0  0  0
    2.5629    1.8853   -0.1840 O   0  0  0  0  0  0  0  0  0  0  0  0
    1.6536    2.9231    0.1206 C   0  0  0  0  0  0  0  0  0  0  0  0
   -1.6375   -1.6339   -1.4843 N   0  0  0  0  0  0  0  0  0  0  0  0
   -5.1091    1.3071   -0.8337 N   0  0  0  0  0  0  0  0  0  0  0  0
   -2.5513    0.2733    2.5393 H   0  0  0  0  0  0  0  0  0  0  0  0
   -0.9453   -2.5364    1.1876 H   0  0  0  0  0  0  0  0  0  0  0  0
   -0.7688   -1.2767    2.3976 H   0  0  0  0  0  0  0  0  0  0  0  0
    0.1918    1.0152    0.8252 H   0  0  0  0  0  0  0  0  0  0  0  0
    3.4409   -2.4855   -0.4640 H   0  0  0  0  0  0  0  0  0  0  0  0
    1.2145   -3.1298    0.4796 H   0  0  0  0  0  0  0  0  0  0  0  0
    4.8353    1.4633    0.3806 H   0  0  0  0  0  0  0  0  0  0  0  0
    5.4292   -0.1657    0.8337 H   0  0  0  0  0  0  0  0  0  0  0  0
    6.1206    0.6785   -0.5803 H   0  0  0  0  0  0  0  0  0  0  0  0
    1.4038    2.9370    1.1893 H   0  0  0  0  0  0  0  0  0  0  0  0
    2.1590    3.8528   -0.1449 H   0  0  0  0  0  0  0  0  0  0  0  0
    0.7304    2.8298   -0.4645 H   0  0  0  0  0  0  0  0  0  0  0  0
   -1.8602   -1.5023   -2.4605 H   0  0  0  0  0  0  0  0  0  0  0  0
   -0.6656   -1.8215   -1.2805 H   0  0  0  0  0  0  0  0  0  0  0  0
   -5.7766    1.6742   -0.1741 H   0  0  0  0  0  0  0  0  0  0  0  0
   -5.4646    0.9692   -1.7138 H   0  0  0  0  0  0  0  0  0  0  0  0
  1  6  1  0  0  0  0
  2  1  2  0  0  0  0
  3  4  2  0  0  0  0
  3  2  1  0  0  0  0
  4  5  1  0  0  0  0
  5  7  1  0  0  0  0
  5  6  2  0  0  0  0
  6 20  1  0  0  0  0
  7 22  1  0  0  0  0
  8  7  1  0  0  0  0
  9  8  1  0  0  0  0
  9 23  1  0  0  0  0
 10  9  2  0  0  0  0
 11 12  2  0  0  0  0
 11 10  1  0  0  0  0
 12 13  1  0  0  0  0
 13 25  1  0  0  0  0
 13  8  2  0  0  0  0
 14 11  1  0  0  0  0
 14 15  1  0  0  0  0
 15 26  1  0  0  0  0
 15 27  1  0  0  0  0
 16 10  1  0  0  0  0
 16 17  1  0  0  0  0
 17 29  1  0  0  0  0
 18 33  1  0  0  0  0
 18  4  1  0  0  0  0
 19  2  1  0  0  0  0
 19 34  1  0  0  0  0
 21  7  1  0  0  0  0
 24 12  1  0  0  0  0
 28 15  1  0  0  0  0
 30 17  1  0  0  0  0
 31 17  1  0  0  0  0
 32 18  1  0  0  0  0
 35 19  1  0  0  0  0
M  END
