22

O 2.5945042 -0.1627177 1.3409068
C 1.9970191 -0.7153760 0.4515537
O 2.0467877 -2.0510071 0.3171165
C 1.1504476 0.0701705 -0.5614962
O 1.6638900 1.3758916 -0.6431811
C -0.3646983 0.0831117 -0.2127125
C -0.9189150 -1.3418047 -0.1357980
C -1.0853156 0.8558768 -1.3211723
C -0.5904323 0.8043967 1.1224038
O -1.9812665 0.8012208 1.3963315
H 1.5156504 -2.3339393 -0.4406527
H 1.2614419 -0.4000622 -1.5497595
H 2.0902632 1.5401156 0.2133204
H -0.7005146 -1.8955316 -1.0581303
H -2.0046608 -1.3064930 -0.0184718
H -0.5122141 -1.9018092 0.7138187
H -0.9749491 0.3436244 -2.2845415
H -2.1512431 0.9357968 -1.0951830
H -0.6662434 1.8611605 -1.4193596
H -0.2120027 1.8370187 1.0420735
H -0.0360643 0.3027098 1.9325730
H -2.1213856 1.2977464 2.2103607
