43

C -3.4474355 3.0185117 0.7614695
O -3.2523931 4.1485949 1.1461301
C -2.4750634 2.0946403 0.1802689
C -3.1187524 0.9084104 -0.1233974
C -4.5649883 1.0712126 0.2789164
O -4.6516773 2.4018760 0.8058162
C -2.4334663 -0.1521229 -0.6943407
C -3.1078312 -1.4591097 -1.0227173
C -1.0693188 0.0708181 -0.9565040
C -0.3864786 1.2569114 -0.6426886
C -1.1164001 2.2925216 -0.0511286
O -0.5057422 3.4490081 0.2791160
C 1.1077727 1.3877236 -0.8631211
C 1.8955218 1.0239735 0.3707856
C 2.7044384 -0.0316843 0.5342985
C 3.4412648 -0.2141068 1.8402764
C 2.7759762 -1.1944877 2.8237407
C 2.7590629 -2.6309467 2.3591554
O 1.7989202 -3.3599018 2.3370319
O 3.9868821 -3.0521167 1.9665514
C 2.8709229 -1.0767958 -0.5423559
O -0.3365568 -0.9488941 -1.5321801
C -0.4457104 -0.9847389 -2.9445852
H -5.2576821 0.9909663 -0.5653204
H -4.8780930 0.3726437 1.0614054
H -2.3641084 -2.2568752 -1.0914211
H -3.8425397 -1.7266661 -0.2557087
H -3.6506696 -1.4143402 -1.9770232
H -1.1849423 4.0398221 0.6575761
H 1.4064321 0.7644414 -1.7115438
H 1.3332720 2.4273495 -1.1225774
H 1.7462009 1.7027530 1.2109736
H 3.5313274 0.7552336 2.3447684
H 4.4573883 -0.5682307 1.6413882
H 1.7421236 -0.9126620 3.0385173
H 3.3233649 -1.1711245 3.7754533
H 3.8750212 -3.9823190 1.7070636
H 1.9055591 -1.5498364 -0.7669046
H 3.5824947 -1.8480040 -0.2362663
H 3.2362842 -0.6327714 -1.4767845
H -0.1456117 -0.0251611 -3.3875336
H -1.4697126 -1.2115420 -3.2669555
H 0.2248309 -1.7730682 -3.2942552
