43

C -1.9621414 3.2258993 -0.0541211
O -1.3538622 4.2715698 -0.0381286
C -1.4695267 1.9176638 -0.4793988
C -2.4939157 0.9991967 -0.3509289
C -3.6919265 1.7362939 0.1964927
O -3.2539528 3.0960656 0.3297845
C -2.3180877 -0.3242156 -0.7239562
C -3.4300069 -1.3340202 -0.6046681
C -1.0479174 -0.6529786 -1.2344285
C 0.0274849 0.2476435 -1.3312807
C -0.2070799 1.5773650 -0.9617596
O 0.7619564 2.5050025 -1.0882623
C 1.4101871 -0.1918330 -1.7994857
C 2.4928652 -0.1676825 -0.7384738
C 2.4323267 -0.7608813 0.4588597
C 3.4933685 -0.4139690 1.4869984
C 3.0243582 0.5631997 2.5731525
C 2.2527588 -0.0968134 3.6905425
O 2.1899120 -1.2851672 3.9031986
O 1.6438001 0.8084553 4.4821940
C 1.3554310 -1.7314144 0.8757239
O -0.8332344 -1.9549334 -1.6480442
C -1.1956124 -2.1561819 -3.0038724
H -4.5534002 1.7166693 -0.4795982
H -4.0054996 1.3791490 1.1830893
H -4.2082275 -1.1694002 -1.3622561
H -3.9238851 -1.2627510 0.3714470
H -3.0395038 -2.3468330 -0.7256588
H 0.3873226 3.3578473 -0.7923694
H 1.7293341 0.4401869 -2.6352009
H 1.3270120 -1.2119023 -2.1898082
H 3.4040139 0.3823326 -0.9815064
H 4.3531074 0.0245087 0.9656185
H 3.8412300 -1.3245486 1.9859223
H 3.8925141 1.0404240 3.0481101
H 2.4162747 1.3771000 2.1620657
H 1.1985055 0.2980482 5.1785997
H 1.7611052 -2.5010268 1.5385400
H 0.8739810 -2.2098431 0.0166614
H 0.5763485 -1.2104793 1.4460811
H -0.6156988 -1.4989398 -3.6665647
H -2.2630330 -1.9594889 -3.1667078
H -0.9786871 -3.1994141 -3.2410012
