43

C -3.3596252 1.8731021 1.3933216
O -3.3386473 1.9488826 2.6005302
C -2.5640291 0.9892653 0.5439922
C -2.9004486 1.2245601 -0.7758594
C -3.9490506 2.3109094 -0.7820824
O -4.1558298 2.6284183 0.6013641
C -2.3037273 0.5087602 -1.8012477
C -2.6548643 0.7503175 -3.2463138
C -1.3647830 -0.4643443 -1.4113694
C -0.9569656 -0.6794113 -0.0829833
C -1.6021486 0.0547902 0.9175692
O -1.2894656 -0.1433085 2.2168382
C 0.1634167 -1.6375243 0.2733990
C 1.4612844 -0.9227656 0.5590232
C 2.1980711 -0.9306441 1.6750401
C 3.4964494 -0.1668393 1.7929229
C 4.0014388 0.5153293 0.5111388
C 5.3362125 1.1898501 0.7715972
O 6.4005363 0.7134806 0.4851272
O 5.2798934 2.3793686 1.4232058
C 1.8036602 -1.6517950 2.9388673
O -0.7873321 -1.2383378 -2.3954437
C -1.5681561 -2.3693252 -2.7424252
H -3.6253815 3.2214991 -1.2968467
H -4.9047575 1.9831017 -1.2039492
H -1.8904510 0.3189954 -3.8971199
H -2.7350099 1.8227579 -3.4576299
H -3.6243111 0.3055946 -3.5102601
H -1.8509578 0.4578217 2.7443290
H -0.1321832 -2.2716048 1.1142741
H 0.3244370 -2.2863212 -0.5930983
H 1.8008130 -0.3175201 -0.2790345
H 3.3893735 0.5838165 2.5895845
H 4.2771225 -0.8527023 2.1510833
H 3.2723848 1.2535960 0.1497803
H 4.1667346 -0.2260554 -0.2748543
H 4.3600924 2.6388014 1.5707973
H 0.9941998 -2.3698014 2.7829917
H 2.6558863 -2.1959455 3.3607372
H 1.4650696 -0.9376733 3.6996855
H -1.0256857 -2.8987566 -3.5279589
H -2.5585387 -2.0777986 -3.1153836
H -1.7048254 -3.0348459 -1.8783404
