22

O 2.7165958 1.0817447 0.4017499
C 2.1927526 0.2373981 -0.2746880
O 2.5828181 -0.0239712 -1.5309186
C 1.0073490 -0.6062738 0.2098790
O 0.9121932 -1.7790014 -0.6000698
C -0.3231707 0.1752884 0.1356341
C -0.2548458 1.4047582 1.0435918
C -0.6326059 0.6029622 -1.3035478
C -1.4216455 -0.7617589 0.6434967
O -2.6623485 -0.0761289 0.6075315
H 2.0470574 -0.7865709 -1.8225917
H 1.1936732 -0.8704626 1.2602159
H 1.4859063 -2.4594747 -0.2242992
H -0.0213804 1.1111903 2.0742878
H 0.5140592 2.1058464 0.7089444
H -1.2215682 1.9155801 1.0478207
H 0.1480777 1.2656490 -1.6946982
H -0.7136047 -0.2625381 -1.9693321
H -1.5839599 1.1409036 -1.3264032
H -1.4486188 -1.6614499 0.0140425
H -1.1745381 -1.0731530 1.6735974
H -3.3421967 -0.6805380 0.9259564
