43

C -4.0722950 2.5847259 1.0129339
O -4.0358891 3.5524483 1.7175410
C -2.9788508 1.8066386 0.3941966
C -3.5421263 0.7712717 -0.3372447
C -5.0391190 0.8614663 -0.1892895
O -5.2517829 1.9993445 0.6404173
C -2.7739872 -0.1425768 -1.0404589
C -3.3946707 -1.2888301 -1.7964162
C -1.3875131 0.0672842 -1.0012088
C -0.7737779 1.0851736 -0.2583935
C -1.5936768 1.9610862 0.4693269
O -1.0857895 2.9518906 1.2404663
C 0.7426133 1.1762100 -0.1939886
C 1.3211055 0.4966104 1.0239173
C 2.1097043 -0.5852268 1.0595409
C 2.7348003 -1.0157897 2.3664629
C 4.1935383 -0.5543958 2.5393144
C 5.1491560 -1.1844195 1.5556079
O 5.8834940 -0.5970423 0.7995995
O 5.1034561 -2.5381176 1.5992407
C 2.4266976 -1.3929296 -0.1767167
O -0.5700757 -0.8001564 -1.6985860
C -0.4233242 -0.4551145 -3.0646147
H -5.4756640 -0.0161103 0.3018083
H -5.5530913 1.0240886 -1.1433047
H -4.1627262 -1.7892380 -1.1959812
H -3.8878733 -0.9506182 -2.7173336
H -2.6314885 -2.0240020 -2.0612768
H -0.1246749 2.8658539 1.2736245
H 1.0530520 2.2313964 -0.2002792
H 1.1689753 0.7451905 -1.1022002
H 1.0143577 0.9371798 1.9744392
H 2.7115530 -2.1074738 2.4453914
H 2.1488090 -0.6185458 3.2042345
H 4.2805659 0.5292824 2.4289347
H 4.5385708 -0.8166129 3.5473617
H 5.7525616 -2.8427245 0.9428199
H 1.5250418 -1.5667070 -0.7770850
H 2.8610308 -2.3580309 0.0987633
H 3.1603483 -0.8777442 -0.8112679
H 0.2662822 -1.1815805 -3.4990754
H -1.3797600 -0.4988819 -3.6004989
H -0.0076559 0.5556262 -3.1755226
