34

O 2.9353125 1.6989427 -1.3537831
C 3.6321390 1.0232216 -0.3218853
C 2.6845206 0.0103482 0.3007608
C 2.2664523 -1.1000706 -0.6741241
O 3.3030002 -2.0579827 -0.7693646
C 0.9327997 -1.6384534 -0.1212305
C 0.2767391 -0.4305553 0.5300764
N -1.0325672 -0.0184999 0.0795970
C -1.1347252 0.4102028 -1.2375357
O -0.1856923 0.4592734 -1.9951421
N -2.4027562 0.7770461 -1.6205377
C -3.5798572 0.7153483 -0.8765238
O -4.6410716 1.0614765 -1.3597985
C -3.3931258 0.2047365 0.4858397
C -2.1565868 -0.1382170 0.8821593
C -4.6167752 0.1143664 1.3419910
C 1.3644759 0.5934841 0.7974255
C 0.6961829 -0.1347309 1.9337380
H 3.5164638 2.3717197 -1.7246386
H 4.5207103 0.5077541 -0.7171891
H 3.9657400 1.7316566 0.4511543
H 3.2238235 -0.4766847 1.1272200
H 2.0568660 -0.6354229 -1.6456917
H 3.1401658 -2.5872812 -1.5593368
H 0.3212773 -2.0777792 -0.9123566
H 1.1347601 -2.4227181 0.6197200
H -2.4838560 1.1032942 -2.5742992
H -1.9655219 -0.5384512 1.8727699
H -5.3726127 -0.5188502 0.8671011
H -5.0760608 1.1008731 1.4627642
H -4.3943801 -0.2903001 2.3352390
H 1.1795800 1.6612586 0.6919748
H 0.0143784 0.4194743 2.5757333
H 1.2700018 -0.8985758 2.4565750
