22

O 1.4643629 1.8472500 -1.0401360
C 1.6582138 0.6825916 -0.7482582
O 2.8242691 0.2705507 -0.2366323
C 0.6306923 -0.4344396 -0.8597565
O 0.0290737 -0.4192409 -2.1300266
C -0.3971398 -0.3431602 0.2985606
C -1.4810191 -1.3997027 0.0511094
C 0.3108418 -0.6245808 1.6239373
C -1.0351166 1.0605793 0.3772355
O -1.2975743 1.6484294 -0.8893647
H 3.3952081 1.0558367 -0.1768095
H 1.1638851 -1.3864361 -0.7715908
H -0.6027055 0.3219898 -2.1162407
H -2.2008592 -1.4100511 0.8769953
H -2.0268344 -1.2054341 -0.8771066
H -1.0365005 -2.3988606 -0.0185756
H 1.0606744 0.1387350 1.8539645
H 0.8188120 -1.5943230 1.5915053
H -0.4116880 -0.6467377 2.4468693
H -1.9963896 0.9911913 0.9001227
H -0.3928055 1.7284687 0.9681330
H -0.4774990 2.1173458 -1.1238382
