43

C -3.5713171 2.0123090 1.5129598
O -3.4924996 2.1941620 2.6941549
C -2.6827899 1.2724256 0.5931416
C -3.2182592 1.3511906 -0.6838873
C -4.4810151 2.1695325 -0.6082503
O -4.6053229 2.5118260 0.7683797
C -2.6201090 0.7406554 -1.7742476
C -3.2022002 0.8410019 -3.1606254
C -1.4504539 0.0124732 -1.5068754
C -0.8471919 -0.0580393 -0.2416502
C -1.4869017 0.5899463 0.8283576
O -0.9849858 0.5533708 2.0822349
C 0.4309588 -0.8686393 -0.0346032
C 1.5108869 -0.1266409 0.7178463
C 2.2562657 -0.5391783 1.7523031
C 3.4075495 0.3216044 2.2503818
C 4.5275578 0.5773448 1.2165361
C 5.3474535 -0.6547118 0.8562585
O 6.5447273 -0.7147098 0.9478833
O 4.6449331 -1.7142293 0.3947076
C 2.0418300 -1.8363881 2.4904827
O -0.8535845 -0.6525390 -2.5566903
C -1.3615409 -1.9623996 -2.7456202
H -5.3724653 1.6094056 -0.9128294
H -4.4285677 3.0940670 -1.1940494
H -4.1151807 0.2383265 -3.2616834
H -2.4770495 0.4967324 -3.9015189
H -3.4802597 1.8740870 -3.3995174
H -0.0768461 0.2050086 2.0345927
H 0.1988463 -1.8254499 0.4586419
H 0.8271393 -1.1126464 -1.0241792
H 1.6564266 0.8866546 0.3354377
H 3.0160683 1.2969723 2.5699592
H 3.8461202 -0.1411686 3.1419428
H 5.2302099 1.3195549 1.5983084
H 4.0972662 0.9854176 0.2913991
H 3.6949917 -1.5088683 0.3907634
H 1.2671207 -2.4549403 2.0308932
H 2.9708239 -2.4182983 2.5291973
H 1.7462128 -1.6405905 3.5289343
H -2.4356441 -1.9494245 -2.9730955
H -0.8179310 -2.3937566 -3.5882958
H -1.2013702 -2.5813495 -1.8525778
