43

C -3.6929079 2.3343059 1.1045809
O -3.8658629 2.6275270 2.2650799
C -2.8070886 1.3018884 0.5700629
C -2.9077150 1.3050284 -0.8091974
C -3.8955250 2.3838509 -1.1818112
O -4.3193172 2.9413826 0.0694866
C -2.1712201 0.4209154 -1.5817655
C -2.2424003 0.4329571 -3.0875828
C -1.3572509 -0.4826438 -0.8723928
C -1.2102865 -0.4853324 0.5245087
C -1.9575680 0.4405500 1.2591754
O -1.8443162 0.4859814 2.6024014
C -0.2134702 -1.3987792 1.2084400
C 1.1560266 -0.7705159 1.2721931
C 2.2617012 -1.1321637 0.6088254
C 3.5935081 -0.4614689 0.8302060
C 3.6079319 0.6903820 1.8312542
C 4.9829131 1.3008610 1.9527444
O 5.9701578 0.9431854 1.3558744
O 5.0009361 2.3283340 2.8266819
C 2.2826628 -2.1963418 -0.4588987
O -0.6255793 -1.4118875 -1.5893410
C -1.3720475 -2.5725065 -1.9132437
H -4.7779351 1.9975554 -1.7014148
H -3.4535931 3.1862780 -1.7811107
H -3.1910610 0.0170529 -3.4539337
H -2.1767953 1.4554667 -3.4788183
H -1.4214231 -0.1532378 -3.5079508
H -2.4527934 1.1775792 2.9256243
H -0.5575917 -1.5868931 2.2302677
H -0.1784543 -2.3606210 0.6908274
H 1.1907358 0.1102650 1.9118759
H 3.9801530 -0.0996782 -0.1304251
H 4.3239019 -1.2170613 1.1476004
H 3.2998724 0.3617450 2.8319169
H 2.9173675 1.4914007 1.5376182
H 5.9158608 2.6549176 2.8351758
H 2.1044655 -1.7504152 -1.4448656
H 1.5171578 -2.9616229 -0.3040540
H 3.2580149 -2.6964753 -0.4913467
H -2.2467025 -2.3323577 -2.5313329
H -0.7052708 -3.2333086 -2.4715620
H -1.7193881 -3.0861986 -1.0063743
