34

O 2.6744166 2.4213275 -0.0442794
C 3.1349021 1.1942962 -0.5503771
C 2.7948063 -0.0185728 0.3426222
C 2.5600890 -1.2574169 -0.5428812
O 2.9359025 -2.4016350 0.2071753
C 1.0482059 -1.2188184 -0.8665841
C 0.3972200 -0.4830563 0.2943728
N -0.8798056 0.1519204 0.0769129
C -0.9023036 1.3085301 -0.6825588
O 0.1093197 1.8392334 -1.1207237
N -2.1509718 1.8224114 -0.9099417
C -3.3794896 1.3218967 -0.4741656
O -4.4150138 1.8995191 -0.7433229
C -3.2742522 0.0817353 0.3009773
C -2.0555263 -0.4355455 0.5218469
C -4.5548461 -0.5119509 0.7963911
C 1.4794322 0.1986353 1.0791790
C 0.7591480 -0.9868619 1.6569409
H 1.7476010 2.4726833 -0.3386624
H 4.2233459 1.2670133 -0.6640081
H 2.7229389 1.0293395 -1.5595731
H 3.6170850 -0.2131750 1.0418889
H 3.1702744 -1.2028880 -1.4583566
H 2.8040705 -3.1778948 -0.3511453
H 0.6391841 -2.2290531 -0.9977124
H 0.8986627 -0.6642191 -1.7971154
H -2.1785624 2.6699323 -1.4614692
H -1.9131837 -1.3568888 1.0762126
H -5.2274271 -0.7254354 -0.0401183
H -5.0837727 0.1959187 1.4430195
H -4.3877589 -1.4386153 1.3559127
H 1.3411291 1.1631083 1.5644293
H 0.0542552 -0.7858088 2.4617553
H 1.2910234 -1.9294640 1.7315598
