34

O 2.6673811 1.6948233 -1.3252441
C 3.2944411 1.3049380 -0.1306953
C 2.7770157 -0.0322723 0.4108961
C 2.5456550 -1.0384517 -0.7459294
O 2.8098874 -2.3795401 -0.3528334
C 1.0474198 -0.9397626 -1.0830802
C 0.3635278 -0.4439679 0.1769497
N -0.9430221 0.1601741 0.0661183
C -1.0319902 1.4476121 -0.4316365
O -0.0630036 2.1071966 -0.7767400
N -2.3050109 1.9483411 -0.5034193
C -3.5036611 1.3150308 -0.1697985
O -4.5652778 1.8979942 -0.2783070
C -3.3317584 -0.0646171 0.2958339
C -2.0867343 -0.5591734 0.3848017
C -4.5741495 -0.8176434 0.6569361
C 1.4182001 0.1095791 1.0903337
C 0.7065772 -1.1677251 1.4411861
H 1.7338565 1.8881607 -1.1292015
H 4.3625956 1.2124916 -0.3617588
H 3.1985831 2.0847798 0.6423825
H 3.5199587 -0.4334961 1.1179772
H 3.1585051 -0.7729714 -1.6204645
H 3.7551530 -2.4494343 -0.1711535
H 0.9042223 -0.2327333 -1.9052953
H 0.6682116 -1.9169761 -1.4014590
H -2.3748000 2.8980659 -0.8438628
H -1.8983815 -1.5690007 0.7301950
H -5.2555820 -0.8722821 -0.1984554
H -4.3551821 -1.8375096 0.9936086
H -5.1213366 -0.2989462 1.4513625
H 1.2499540 0.9868956 1.7141903
H -0.0224287 -1.1276920 2.2473327
H 1.2511736 -2.1018878 1.3573304
