43

C -4.0432453 2.5226780 1.0415741
O -3.9780679 3.4852178 1.7511922
C -2.9748642 1.7362616 0.3902746
C -3.5680338 0.7124176 -0.3340929
C -5.0596877 0.8187385 -0.1465847
O -5.2382974 1.9535111 0.6951392
C -2.8277911 -0.2035068 -1.0641098
C -3.4769500 -1.3342987 -1.8188406
C -1.4379324 -0.0112709 -1.0563547
C -0.7946456 0.9913297 -0.3184546
C -1.5867045 1.8735124 0.4321955
O -1.0471538 2.8535749 1.1955054
C 0.7239890 1.0621509 -0.2803910
C 1.3099575 0.4041048 0.9452627
C 2.0920356 -0.6826560 0.9991289
C 2.7476858 -1.0591066 2.3110915
C 4.1878194 -0.5517020 2.4591066
C 5.2152209 -1.3703077 1.6968713
O 5.0052216 -2.4476656 1.2054352
O 6.4523722 -0.8263413 1.6276127
C 2.3732057 -1.5379186 -0.2123565
O -0.6487236 -0.8787981 -1.7855225
C -0.5282499 -0.5090321 -3.1478639
H -5.5965505 0.9928280 -1.0857908
H -5.4921686 -0.0567587 0.3513146
H -2.7285718 -2.0830952 -2.0879257
H -4.2531493 -1.8189750 -1.2162300
H -3.9660061 -0.9844486 -2.7376852
H -0.0864854 2.7571026 1.2019063
H 1.0482526 2.1129875 -0.3167793
H 1.1308851 0.6034153 -1.1838755
H 1.0156052 0.8677989 1.8890064
H 2.7644071 -2.1484777 2.4181251
H 2.1485508 -0.6602830 3.1396621
H 4.4827753 -0.5852053 3.5180040
H 4.2641702 0.4990888 2.1510090
H 6.4633864 0.0324302 2.0718065
H 1.4579714 -1.6986402 -0.7980175
H 2.7935663 -2.5001352 0.0890535
H 3.1142166 -1.0655411 -0.8709381
H 0.1600145 -1.2212233 -3.6071776
H -1.4940652 -0.5514442 -3.6671447
H -0.1242668 0.5075840 -3.2490448
