34

O 2.0691804 2.4944119 -0.2270805
C 3.0778334 1.5753641 0.1627041
C 2.5600812 0.1418482 0.3004374
C 2.2495489 -0.5358147 -1.0622659
O 3.3606909 -1.1585792 -1.6659786
C 1.0293892 -1.4540537 -0.8313291
C 0.3396257 -0.9177473 0.4129623
N -1.0763782 -0.6551732 0.3649343
C -1.9203581 -1.7552463 0.4472344
O -1.5127368 -2.8843201 0.6255499
N -3.2549121 -1.4455470 0.3121822
C -3.8308327 -0.2013024 0.0527433
O -5.0370546 -0.0891445 -0.0602956
C -2.8619232 0.8934758 -0.0654386
C -1.5560577 0.6126983 0.0854037
C -3.4156462 2.2553954 -0.3463998
C 1.2761719 0.0336213 1.1063683
C 0.9680387 -1.3025476 1.7193770
H 1.9232046 2.3972966 -1.1767555
H 3.4342360 1.9285274 1.1361500
H 3.9297470 1.6074009 -0.5339954
H 3.3612794 -0.4412734 0.7873242
H 1.9488761 0.2376318 -1.7767435
H 3.6474707 -1.8767001 -1.0850809
H 1.3479664 -2.4922179 -0.6678194
H 0.3727854 -1.4587748 -1.7061153
H -3.8900196 -2.2293847 0.3795172
H -0.7867913 1.3736579 -0.0034921
H -4.0037962 2.2475849 -1.2702419
H -2.6247336 3.0087360 -0.4403849
H -4.1014498 2.5641304 0.4502734
H 0.9082988 0.9187778 1.6240779
H 1.7338473 -2.0768532 1.6994088
H 0.3344163 -1.3156760 2.6011715
