34

O 3.2883662 2.3927504 0.0331379
C 3.0909661 1.1970812 -0.7079759
C 2.7452897 0.0925019 0.2838079
C 2.5463123 -1.2675273 -0.4127527
O 2.9675723 -2.2761455 0.4962459
C 1.0335990 -1.3524466 -0.7149782
C 0.3559189 -0.4656609 0.3152589
N -0.9504659 0.0588281 0.0002734
C -1.0342859 0.9900009 -1.0268897
O -0.0733653 1.3715294 -1.6686455
N -2.3055966 1.4596121 -1.2587814
C -3.4975068 1.0685101 -0.6495435
O -4.5549220 1.5752450 -0.9725832
C -3.3286807 0.0263662 0.3687447
C -2.0890169 -0.4169231 0.6316568
C -4.5670380 -0.4568978 1.0558208
C 1.4074752 0.4009322 0.9492301
C 0.7436308 -0.6908376 1.7424833
H 3.3161302 3.1274772 -0.5904311
H 2.2640339 1.3170044 -1.4246859
H 4.0061383 0.9303763 -1.2630822
H 3.5551155 0.0074566 1.0175002
H 3.1476330 -1.3327718 -1.3361171
H 2.8253060 -3.1315452 0.0720231
H 0.6712491 -2.3879116 -0.6683085
H 0.8508271 -0.9597332 -1.7183693
H -2.3772941 2.1603754 -1.9842688
H -1.9016848 -1.1888907 1.3710048
H -5.0805087 0.3734124 1.5513817
H -5.2760391 -0.8682326 0.3304001
H -4.3465634 -1.2269595 1.8032894
H 1.2182655 1.4341160 1.2327159
H 1.3186584 -1.5796269 1.9855642
H 0.0304808 -0.3815651 2.5050735
