43

C -4.1340355 2.3696668 1.1656258
O -4.3727023 2.7029936 2.2908584
C -3.1113644 1.4447952 0.6344811
C -3.2467774 1.3942318 -0.7445743
C -4.3789148 2.3076171 -1.1338382
O -4.8484269 2.8442465 0.0990548
C -2.4245043 0.6171299 -1.5437200
C -2.5495876 0.6244357 -3.0452428
C -1.4700792 -0.1569085 -0.8672015
C -1.2861863 -0.1250728 0.5227893
C -2.1155952 0.7133503 1.2835104
O -1.9803028 0.8416902 2.6251837
C -0.1588551 -0.9211733 1.1610558
C 1.0823372 -0.0952105 1.3941916
C 2.2807038 -0.2507984 0.8180514
C 3.4537532 0.5812077 1.2837908
C 4.4364751 -0.1819087 2.1964874
C 5.0724700 -1.3825108 1.5145898
O 4.8676309 -2.5288896 1.8104204
O 5.8962259 -1.0963796 0.4722562
C 2.5175493 -1.2495165 -0.2898491
O -0.6321442 -0.9654675 -1.6105283
C -1.1895106 -2.2335419 -1.9063977
H -4.0576938 3.1353501 -1.7768705
H -5.2046162 1.7785013 -1.6235387
H -1.7221901 0.0768772 -3.5007612
H -2.5383980 1.6485013 -3.4373282
H -3.4940472 0.1728472 -3.3750209
H -1.2055631 0.3447167 2.9166950
H -0.4960530 -1.3512554 2.1156634
H 0.0770445 -1.7778168 0.5272011
H 0.9469896 0.7407803 2.0831988
H 3.0917093 1.4630853 1.8258115
H 4.0010178 0.9598606 0.4109418
H 3.9121600 -0.5534719 3.0800712
H 5.2271812 0.4997163 2.5385616
H 5.9833928 -0.1389305 0.3707927
H 2.5134778 -2.2770346 0.0963182
H 1.7336426 -1.1800390 -1.0549145
H 3.4899564 -1.0853627 -0.7638483
H -1.4109630 -2.7928103 -0.9874158
H -2.1132964 -2.1430705 -2.4912283
H -0.4420103 -2.7746308 -2.4902236
