43

C -2.5621833 2.8130252 0.8334764
O -2.0956541 3.4192875 1.7550623
C -2.2013712 1.4950431 0.2713343
C -3.0436766 1.2362502 -0.8009408
C -3.9865585 2.4035788 -0.9412880
O -3.6024531 3.3038413 0.0924882
C -2.9375806 0.0856855 -1.5656355
C -3.8382363 -0.1771700 -2.7447084
C -1.9262455 -0.8112108 -1.1906261
C -1.0975307 -0.6229298 -0.0755811
C -1.2103522 0.5828262 0.6359267
O -0.3832575 0.8671088 1.6695403
C -0.1230076 -1.7050895 0.3737742
C 1.3228305 -1.2691926 0.2926181
C 2.2736965 -1.3526788 1.2284508
C 3.5733297 -0.5955527 1.0646440
C 3.5564289 0.7591403 1.7817963
C 4.8978338 1.4690504 1.7038036
O 5.8783998 1.0119873 1.1806523
O 4.9437471 2.6939694 2.2790367
C 2.1345404 -2.1381476 2.5076865
O -1.7517586 -1.9489975 -1.9487226
C -0.8429756 -1.7603283 -3.0195320
H -3.8876419 2.9116587 -1.9074811
H -5.0368926 2.1298944 -0.7919469
H -3.5350873 0.4069083 -3.6246897
H -3.8129090 -1.2366861 -3.0109673
H -4.8736335 0.1042192 -2.5226426
H 0.3363966 0.2143234 1.6534823
H -0.3725780 -2.0333502 1.3930078
H -0.2697985 -2.5762182 -0.2694409
H 1.5799048 -0.8123934 -0.6660359
H 3.8004262 -0.4328479 0.0035255
H 4.4035446 -1.1813161 1.4723866
H 3.2998527 0.6218025 2.8419264
H 2.7850225 1.4187345 1.3575841
H 4.0811142 2.9222765 2.6517148
H 2.2852507 -1.4977755 3.3859260
H 1.1564716 -2.6185845 2.5949739
H 2.8964273 -2.9266188 2.5583970
H -0.7175248 -2.7308863 -3.5029011
H 0.1302680 -1.4047919 -2.6531741
H -1.2266730 -1.0375480 -3.7517968
