43

C -3.2992704 2.3877464 1.1243838
O -3.0629629 2.7729204 2.2336011
C -2.5725769 1.4301483 0.2656740
C -3.2578727 1.3146326 -0.9343775
C -4.4568930 2.2251499 -0.8715579
O -4.3919494 2.8183247 0.4215087
C -2.8358564 0.4663718 -1.9443732
C -3.5927459 0.3344925 -3.2406335
C -1.6799940 -0.2839681 -1.6765517
C -0.9229154 -0.1610485 -0.5013382
C -1.3932741 0.7168764 0.4898877
O -0.7454093 0.8747831 1.6659345
C 0.3274598 -1.0111543 -0.2878855
C 1.5536269 -0.2094150 0.0864804
C 2.4234512 -0.4054606 1.0819669
C 3.5035890 0.6316434 1.3352590
C 4.9280640 0.0837732 1.5549590
C 5.1721724 -0.5839003 2.9013962
O 5.5323064 -1.7216674 3.0452472
O 4.9550148 0.1912110 3.9940270
C 2.3756021 -1.5759721 2.0282081
O -1.2624733 -1.1831752 -2.6336528
C -1.8817265 -2.4522125 -2.5078553
H -4.4321746 3.0224524 -1.6229931
H -5.4054597 1.6841182 -0.9605478
H -3.9297618 1.3119034 -3.6034315
H -2.9578157 -0.1241909 -4.0020238
H -4.4932614 -0.2845265 -3.1251328
H 0.1469505 0.5003012 1.5721725
H 0.5417252 -1.5204312 -1.2308560
H 0.1255311 -1.7938846 0.4584745
H 1.7027771 0.6499190 -0.5713995
H 3.5379511 1.3232937 0.4846028
H 3.2107366 1.2404743 2.2050976
H 5.1758653 -0.6467141 0.7805378
H 5.6497700 0.9067697 1.4579824
H 4.7008311 1.0852239 3.7284195
H 2.5145474 -1.2414038 3.0630684
H 1.4268319 -2.1155379 1.9699211
H 3.1783328 -2.2904990 1.8147388
H -2.9714970 -2.3809258 -2.6183553
H -1.4757157 -3.0798178 -3.3032957
H -1.6615237 -2.9067321 -1.5318842
