43

C -1.8841661 3.0627591 0.4741681
O -1.2808302 3.7128882 1.2813515
C -1.7328883 1.6442308 0.0860314
C -2.6550166 1.3734418 -0.9158091
C -3.4510978 2.6276070 -1.1681345
O -2.8940003 3.5922754 -0.2799533
C -2.7339819 0.1363286 -1.5343778
C -3.7350660 -0.1507943 -2.6237259
C -1.8092329 -0.8281746 -1.1051135
C -0.9117819 -0.6246671 -0.0482859
C -0.8635854 0.6511691 0.5348454
O 0.0399032 0.9233558 1.5177127
C -0.0188024 -1.7582766 0.4470212
C 1.4482714 -1.4430034 0.2765725
C 2.3951134 -1.3203316 1.2125700
C 3.6406624 -0.5079756 0.9060903
C 3.4684683 1.0058611 1.1773194
C 3.3817252 1.2849364 2.6715132
O 4.3265242 1.0850543 3.3937032
O 2.2260244 1.7422240 3.1877720
C 2.3008667 -1.9139006 2.5986181
O -1.7949025 -2.0459137 -1.7517898
C -0.9351803 -2.0567230 -2.8787093
H -3.3508227 2.9964736 -2.1952928
H -4.5162590 2.5150485 -0.9367251
H -4.7307950 0.2212002 -2.3567021
H -3.4590416 0.3383736 -3.5679083
H -3.8014570 -1.2268116 -2.8011341
H 0.5207911 0.0916177 1.6758285
H -0.2543094 -1.9988571 1.4931857
H -0.2604135 -2.6545919 -0.1275578
H 1.7137584 -1.2264473 -0.7596305
H 3.9140775 -0.6415231 -0.1484703
H 4.4805971 -0.8632333 1.5112996
H 4.3660885 1.5262804 0.8218217
H 2.6125442 1.4160169 0.6277997
H 1.4988308 1.7490206 2.5370406
H 3.1187249 -2.6262450 2.7617180
H 2.3960132 -1.1388296 3.3687597
H 1.3625548 -2.4527441 2.7555820
H 0.0956279 -1.8034741 -2.5916122
H -0.9639663 -3.0689498 -3.2872734
H -1.2698720 -1.3445942 -3.6449197
