34

O 4.5616479 0.7304414 -1.0572226
C 3.4233150 1.2155439 -0.3493968
C 2.5965246 0.0790413 0.2411423
C 2.1280678 -0.8910922 -0.8695281
O 3.0996966 -1.8388278 -1.2306211
C 0.8530053 -1.5401729 -0.3252802
C 0.2132817 -0.4391347 0.5082066
N -1.0835339 0.0671360 0.1317254
C -1.1451520 0.8280187 -1.0294823
O -0.1624582 1.1365429 -1.6778488
N -2.4170908 1.2133161 -1.3818093
C -3.6205578 0.8970803 -0.7508690
O -4.6762710 1.3201743 -1.1824188
C -3.4679728 0.0365669 0.4277369
C -2.2299325 -0.3239921 0.8026200
C -4.7233035 -0.3713900 1.1309791
C 1.3063913 0.5295492 0.9039527
C 0.6689270 -0.3740378 1.9296771
H 5.2512564 0.5317810 -0.4109639
H 2.8103422 1.7479654 -1.0890972
H 3.7155897 1.9446276 0.4189541
H 3.2237284 -0.4875300 0.9512911
H 1.8218935 -0.2723613 -1.7298188
H 3.8615884 -1.3206731 -1.5351805
H 0.2078818 -1.9036283 -1.1281943
H 1.1207193 -2.4013560 0.2987768
H -2.4776456 1.7878885 -2.2118206
H -2.0471283 -0.9480765 1.6713917
H -4.5203843 -1.0380361 1.9760774
H -5.4024214 -0.8801379 0.4395342
H -5.2611728 0.5080962 1.4994730
H 1.1131547 1.5958281 1.0072493
H 0.0059725 0.0750282 2.6660099
H 1.2521456 -1.2140795 2.3030511
