34

O 3.3232750 2.3175943 -0.1520224
C 3.0580355 1.1100273 -0.8519442
C 2.7266970 0.0478784 0.1893963
C 2.4848237 -1.3368469 -0.4611872
O 2.8173933 -2.4055897 0.4153122
C 0.9691447 -1.4069520 -0.7144761
C 0.3317840 -0.4786614 0.3036248
N -0.9775018 0.0528961 0.0131429
C -1.0824715 0.9602355 -1.0334626
O -0.1367153 1.3168855 -1.7108831
N -2.3560007 1.4357098 -1.2417602
C -3.5340331 1.0700380 -0.5909461
O -4.5959891 1.5777284 -0.8973777
C -3.3452001 0.0516772 0.4477220
C -2.1022141 -0.3960397 0.6874986
C -4.5681034 -0.4043375 1.1802913
C 1.4121583 0.3920338 0.8816309
C 0.7571949 -0.6653928 1.7259434
H 3.3421793 3.0367927 -0.7940350
H 3.9379001 0.8002559 -1.4406932
H 2.2033060 1.2343394 -1.5334880
H 3.5580569 0.0026222 0.9074790
H 3.0506695 -1.4437325 -1.4030383
H 3.7645163 -2.3590564 0.5984444
H 0.6141203 -2.4389024 -0.6201577
H 0.7533169 -1.0472560 -1.7241073
H -2.4422368 2.1184698 -1.9826673
H -1.9019745 -1.1507064 1.4412660
H -5.0612607 0.4416666 1.6707361
H -5.3004942 -0.8266707 0.4845637
H -4.3323317 -1.1589810 1.9390240
H 1.2427665 1.4347277 1.1400311
H 1.3188783 -1.5602807 1.9766917
H 0.0704109 -0.3221725 2.4976473
