34

O 1.8841163 2.2113106 -0.4469756
C 2.9853666 1.4942027 0.0971803
C 2.5378186 0.0557504 0.3105885
C 2.2004564 -0.6520681 -1.0307360
O 3.2702428 -1.4018939 -1.5735500
C 1.0053292 -1.5767254 -0.7524616
C 0.3168223 -1.0019292 0.4735710
N -1.0906399 -0.7006698 0.4134443
C -1.9733853 -1.7677284 0.5390414
O -1.6078258 -2.8997767 0.7769676
N -3.2945553 -1.4167790 0.3719396
C -3.8227860 -0.1637325 0.0580262
O -5.0235799 -0.0115853 -0.0645993
C -2.8146370 0.8892254 -0.1038961
C -1.5205323 0.5680889 0.0630818
C -3.3182672 2.2546229 -0.4514776
C 1.2663341 -0.0419143 1.1409622
C 0.9480065 -1.3601887 1.7858354
H 2.1757273 3.1147918 -0.6145056
H 3.8503264 1.5295147 -0.5853027
H 3.2989387 1.9328702 1.0565528
H 3.3607786 -0.4869202 0.8000025
H 1.8729281 0.1276442 -1.7342898
H 3.9425041 -0.7744236 -1.8698626
H 0.3428014 -1.6283102 -1.6207822
H 1.3624256 -2.5933860 -0.5570897
H -3.9608149 -2.1716888 0.4661929
H -0.7226161 1.2909049 -0.0684994
H -3.9001930 2.2221445 -1.3776597
H -2.5044136 2.9778612 -0.5754333
H -3.9969026 2.6221861 0.3248001
H 0.9045140 0.8516548 1.6489107
H 1.7055892 -2.1425016 1.7761377
H 0.3200178 -1.3504514 2.6719883
