43

C -3.3171229 2.4426739 1.0538917
O -2.9843540 2.9314116 2.1096043
C -2.7009727 1.3107701 0.3654784
C -3.3907701 1.0796169 -0.8096401
C -4.5015890 2.0995849 -0.8830771
O -4.3580767 2.8836498 0.3097237
C -3.0198743 0.0525939 -1.6621983
C -3.7758469 -0.2347005 -2.9334329
C -1.9015652 -0.7046815 -1.2678464
C -1.2057002 -0.5176456 -0.0606730
C -1.6228292 0.5288230 0.7692390
O -0.9953359 0.7612408 1.9409767
C -0.0522228 -1.4139223 0.3585153
C 1.2911536 -0.7366748 0.2463688
C 2.2154938 -0.5355997 1.1909807
C 3.4418869 0.2839953 0.8499338
C 4.7930223 -0.4333778 1.0629627
C 5.2662495 -0.4557211 2.5083815
O 5.3093859 -1.4378977 3.2004546
O 5.6465364 0.7420998 3.0194745
C 2.1188258 -1.0442335 2.6049153
O -1.4853608 -1.7229212 -2.0976310
C -0.6021270 -1.2867272 -3.1153926
H -5.4999384 1.6500504 -0.8769788
H -4.4155509 2.7689154 -1.7455826
H -3.5411320 0.4918425 -3.7237190
H -4.8574765 -0.1767944 -2.7666649
H -3.5326875 -1.2352037 -3.2991394
H -1.4205547 1.5393966 2.3513917
H -0.0676833 -2.2953075 -0.2895225
H -0.2141133 -1.7667255 1.3818116
H 1.4928997 -0.3300582 -0.7465678
H 3.3781639 0.5886031 -0.2012385
H 3.4325294 1.2099916 1.4427627
H 4.7261104 -1.4673284 0.7151902
H 5.5664803 0.0624891 0.4612594
H 5.5833240 1.4314205 2.3443749
H 2.8604190 -1.8262643 2.7969911
H 1.1288894 -1.4466895 2.8348772
H 2.3163280 -0.2340606 3.3155604
H -1.0729400 -0.5370680 -3.7649038
H 0.3117334 -0.8526251 -2.6888972
H -0.3436064 -2.1670428 -3.7068107
