43

C -2.7886909 2.8526324 0.5955038
O -2.4756328 3.5544151 1.5151879
C -2.3825203 1.4719453 0.2613062
C -3.0121639 1.1100386 -0.9197963
C -3.8730437 2.2650916 -1.3606598
O -3.6536003 3.2731666 -0.3781375
C -2.8161874 -0.1273627 -1.5120623
C -3.5404084 -0.5238056 -2.7742092
C -1.9060545 -0.9788471 -0.8676537
C -1.2477639 -0.6615370 0.3307318
C -1.5180963 0.5904440 0.9134204
O -0.9374417 0.9703097 2.0727113
C -0.3596132 -1.6904870 1.0178957
C 1.0159102 -1.2652834 1.4972162
C 1.7989039 -0.2498442 1.1170380
C 2.9986788 0.1201037 1.9691498
C 4.3374706 -0.2786593 1.3266182
C 5.5943392 0.2394934 2.0104134
O 6.5969974 0.5181866 1.4101215
O 5.5610071 0.3527206 3.3591298
C 1.6045008 0.6235153 -0.0958964
O -1.6679830 -2.2117094 -1.4381771
C -0.6320628 -2.1882788 -2.4031336
H -3.5874665 2.6626393 -2.3412494
H -4.9415968 2.0219976 -1.3782143
H -3.1633020 0.0248465 -3.6483463
H -3.4214733 -1.5937268 -2.9589878
H -4.6119935 -0.3018601 -2.7010242
H -0.2315012 0.3345362 2.2734991
H -0.2416109 -2.5581757 0.3632057
H -0.8994799 -2.0890908 1.8936068
H 1.4074962 -1.9250371 2.2752310
H 2.8905601 -0.3522284 2.9585169
H 2.9924429 1.2083041 2.1281470
H 4.3840474 0.0751869 0.2945612
H 4.4162301 -1.3729123 1.2773271
H 4.6983758 0.0813135 3.6995843
H 2.5353364 0.7238492 -0.6676451
H 0.8312970 0.2434787 -0.7681224
H 1.3257359 1.6378828 0.2188436
H -0.5871032 -3.1858545 -2.8456945
H 0.3353945 -1.9547403 -1.9358537
H -0.8283356 -1.4466556 -3.1890029
