43

C -1.7072898 3.2177733 -1.0211018
O -0.7994189 4.0163611 -1.0628467
C -1.6077630 1.7610259 -0.9679822
C -2.8845142 1.2318327 -0.9153608
C -3.8493822 2.3940074 -0.9535392
O -3.0166045 3.5600501 -1.0129225
C -3.0841895 -0.1372794 -0.8388858
C -4.4610894 -0.7455749 -0.7647434
C -1.9223689 -0.9330341 -0.8400854
C -0.6135115 -0.4204879 -0.8469650
C -0.4640632 0.9680167 -0.9361826
O 0.7686747 1.5165419 -0.9861202
C 0.6060577 -1.3194160 -0.7444957
C 1.2910071 -1.2409614 0.6017572
C 2.5885777 -1.0221583 0.8404352
C 3.0902652 -0.8347330 2.2485164
C 3.3855461 0.6306582 2.5723726
C 3.9739073 0.8013690 3.9629675
O 4.2927036 -0.1069922 4.6823872
O 4.1387164 2.0817332 4.3708043
C 3.6126339 -0.8589841 -0.2559352
O -2.0770312 -2.3027791 -0.8039154
C -2.2468357 -2.8779192 -2.0886154
H -4.4935681 2.3902580 -1.8391289
H -4.4749881 2.4652396 -0.0580166
H -4.4073988 -1.7349904 -0.3037344
H -5.1392455 -0.1164556 -0.1776162
H -4.9179486 -0.8598587 -1.7575596
H 0.6528271 2.4853042 -1.0330166
H 1.3137218 -1.0812623 -1.5464620
H 0.2676688 -2.3488854 -0.8940344
H 0.6214687 -1.3655797 1.4543607
H 4.0119501 -1.4072121 2.3986517
H 2.3669730 -1.2224769 2.9752227
H 2.4717134 1.2341582 2.4924429
H 4.0966767 1.0474441 1.8442772
H 3.8283994 2.6936348 3.6889962
H 3.4138359 -1.5284172 -1.0998084
H 4.6189071 -1.0759975 0.1199502
H 3.6218330 0.1675694 -0.6480398
H -3.1528602 -2.5057073 -2.5840659
H -2.3297707 -3.9570122 -1.9437772
H -1.3842210 -2.6589931 -2.7332912
