22

O 1.9276210 1.4855448 0.2107572
C 1.9509512 0.2956687 0.0155418
O 3.1177924 -0.3723195 -0.1333109
C 0.7693739 -0.6631020 -0.1017065
O 0.9091539 -1.4111880 -1.2939942
C -0.6105610 0.0056696 -0.1083419
C -1.6608497 -1.1115463 -0.1384957
C -0.7940193 0.9096431 -1.3295016
C -0.7955108 0.8396812 1.1573436
O -0.4514654 0.0445035 2.2773202
H 3.8243252 0.2911792 -0.0587306
H 0.8164690 -1.3164812 0.7821891
H 1.8167264 -1.7404888 -1.3099768
H -1.5462289 -1.7166876 -1.0409677
H -1.5695666 -1.7638519 0.7352897
H -2.6686999 -0.6823904 -0.1328578
H -0.0649955 1.7259740 -1.3338046
H -1.7992081 1.3470662 -1.3160838
H -0.6786951 0.3334193 -2.2522226
H -0.1665095 1.7345598 1.0993323
H -1.8506927 1.1608285 1.2106800
H -0.4755098 0.6043173 3.0616408
