43

C -1.6948143 3.3232835 -0.9131567
O -0.8236479 4.1415945 -0.8359360
C -1.6407970 1.8500456 -0.8089307
C -2.9267569 1.3562060 -0.9715980
C -3.8505487 2.5286769 -1.1799361
O -3.0004603 3.6701772 -1.1318626
C -3.2057363 -0.0005212 -0.9423882
C -4.6030658 -0.5320823 -1.1263710
C -2.1051414 -0.8514430 -0.7580530
C -0.7955731 -0.3977814 -0.5432759
C -0.5670745 0.9877086 -0.5774733
O 0.6712766 1.5054482 -0.4098161
C 0.3464783 -1.3893985 -0.3474267
C 1.1813049 -1.1154569 0.8817158
C 2.5110861 -1.0354102 0.9941479
C 3.1334239 -0.5822320 2.2982877
C 3.3799893 0.9404737 2.3378705
C 4.1115405 1.3583194 3.6009707
O 3.6047209 1.9421675 4.5191711
O 5.4179512 0.9939029 3.6702098
C 3.4802623 -1.3021744 -0.1279047
O -2.3327287 -2.2107415 -0.7760268
C -2.2707728 -2.7653150 -2.0792280
H -4.3513613 2.5064330 -2.1543668
H -4.6092786 2.6241846 -0.3948528
H -4.9218834 -0.4830675 -2.1765517
H -5.3283137 0.0540436 -0.5512345
H -4.6540450 -1.5732751 -0.8002302
H 1.2486893 0.7872131 -0.1000887
H -0.0958070 -2.3813062 -0.2281106
H 0.9732216 -1.4253705 -1.2512707
H 0.5700211 -0.9566376 1.7726644
H 2.4948797 -0.8683653 3.1453647
H 4.0933289 -1.0950825 2.4371795
H 3.9621895 1.2401873 1.4544326
H 2.4314514 1.4840486 2.3141718
H 5.6926164 0.5626643 2.8493358
H 4.1683032 -2.1133430 0.1411866
H 4.0993766 -0.4192908 -0.3351238
H 2.9745385 -1.5897293 -1.0530248
H -1.2821427 -2.6084092 -2.5324407
H -3.0283161 -2.3246873 -2.7405225
H -2.4580855 -3.8355510 -1.9739076
