34

O 4.2092819 1.1421787 -1.1839047
C 2.9944046 1.3695152 -0.4849442
C 2.6777188 0.1241448 0.3307356
C 2.4920511 -1.1104807 -0.5879713
O 2.8550775 -2.3195217 0.0674245
C 0.9845118 -1.1749370 -0.8812994
C 0.2980890 -0.4758410 0.2786972
N -1.0163050 0.0792971 0.0632553
C -1.1223127 1.1595326 -0.8048116
O -0.1751522 1.6419330 -1.3965268
N -2.3980839 1.6574814 -0.9348157
C -3.5780891 1.1616466 -0.3830633
O -4.6446164 1.7023397 -0.6055694
C -3.3890623 -0.0310755 0.4481861
C -2.1434549 -0.4982552 0.6265326
C -4.6196193 -0.6367310 1.0443408
C 1.3416622 0.2918036 1.0434546
C 0.7014368 -0.9297741 1.6453437
H 4.3339820 1.8743598 -1.7988746
H 3.0910712 2.2326226 0.1935399
H 2.1631543 1.5789427 -1.1744283
H 3.5011198 -0.0546618 1.0384985
H 3.0748042 -0.9987128 -1.5144754
H 3.8145051 -2.3160640 0.1760087
H 0.7744812 -0.6358329 -1.8091138
H 0.6586984 -2.2150281 -0.9921982
H -2.4852608 2.4619037 -1.5418685
H -1.9430276 -1.3741935 1.2343282
H -5.1389686 0.0902466 1.6768657
H -5.3260536 -0.9193360 0.2576079
H -4.3905284 -1.5240631 1.6442686
H 1.1216431 1.2572488 1.4990436
H 1.2924053 -1.8370379 1.7194805
H -0.0095633 -0.7737472 2.4544535
