22

O 2.7930293 0.8852134 -0.8222909
C 2.0608720 -0.0599574 -0.6554454
O 2.0430654 -1.1128323 -1.4906465
C 1.0454091 -0.1481786 0.4688099
O 1.1620176 -1.4100445 1.0634909
C -0.3934537 0.1794765 -0.0266504
C -0.9780703 -0.9561169 -0.8712487
C -0.3684187 1.4848824 -0.8210105
C -1.2760049 0.4153711 1.2040594
O -1.2650382 -0.7347826 2.0476223
H 2.7178208 -0.9198253 -2.1621991
H 1.3331004 0.6594346 1.1654278
H 0.4171687 -1.4736974 1.6866075
H -2.0319141 -0.7480830 -1.0914722
H -0.9199090 -1.9100053 -0.3417340
H -0.4499971 -1.0577338 -1.8231606
H 0.1876925 1.3765648 -1.7578610
H -1.3882621 1.7971203 -1.0717338
H 0.1018100 2.2904394 -0.2444823
H -0.8986792 1.2956606 1.7477147
H -2.3043443 0.6303349 0.8762566
H -1.5880944 -0.4833438 2.9200458
