34

O 4.2880100 1.6712281 -0.4711914
C 3.0386121 1.6685304 0.1860321
C 2.4720948 0.2601158 0.3175932
C 2.1313346 -0.3370781 -1.0682088
O 3.2652009 -0.8056323 -1.7757747
C 0.9980682 -1.3508769 -0.8435443
C 0.2795195 -0.8505582 0.4020524
N -1.1473743 -0.6505350 0.3506390
C -1.9394456 -1.7911139 0.3962180
O -1.4810417 -2.9057591 0.5394611
N -3.2872353 -1.5381206 0.2685000
C -3.9222026 -0.3122797 0.0610865
O -5.1330904 -0.2516479 -0.0392321
C -3.0049240 0.8293128 -0.0215019
C -1.6882684 0.6014285 0.1136859
C -3.6173468 2.1745458 -0.2545897
C 1.1826401 0.1321647 1.1080938
C 0.9120905 -1.2202094 1.7098538
H 4.2189757 1.0598958 -1.2215811
H 3.2021808 2.1112038 1.1754562
H 2.3057821 2.3075754 -0.3406488
H 3.2572751 -0.3636694 0.7790135
H 1.7297970 0.4719405 -1.6869751
H 3.6532028 -1.5270384 -1.2620850
H 0.3435129 -1.4078940 -1.7165580
H 1.3959764 -2.3588097 -0.6688783
H -3.8867707 -2.3515595 0.3066494
H -0.9598087 1.4011676 0.0441807
H -4.3159181 2.4236671 0.5506191
H -4.2038073 2.1719639 -1.1785007
H -2.8629146 2.9666366 -0.3213816
H 0.7910878 1.0003933 1.6374272
H 1.7124980 -1.9571712 1.6877448
H 0.2721912 -1.2716145 2.5848453
