43

C -3.8101265 2.7626371 0.8988473
O -3.6704990 3.5681448 1.7740348
C -2.8121694 1.9356373 0.1874449
C -3.4809698 1.1580582 -0.7491812
C -4.9497049 1.4783049 -0.6515500
O -5.0380425 2.4613837 0.3751608
C -2.8234881 0.2581426 -1.5730067
C -3.5512289 -0.6081170 -2.5674151
C -1.4322113 0.1911411 -1.4170258
C -0.7127453 0.9994757 -0.5277119
C -1.4269183 1.8441507 0.3333789
O -0.8029445 2.5754155 1.2886575
C 0.8030609 0.9197332 -0.4882065
C 1.3083836 0.0170570 0.6089984
C 2.3001962 -0.8777011 0.5337174
C 2.6896354 -1.7067084 1.7363808
C 4.0399836 -1.3006887 2.3363249
C 3.9702260 0.0217194 3.0855559
O 2.9465445 0.5686486 3.4004866
O 5.1601796 0.5676577 3.4296803
C 3.1473275 -1.0803542 -0.6986954
O -0.7281530 -0.7045888 -2.1915631
C -0.5785763 -1.9702688 -1.5710336
H -5.3604938 1.8980698 -1.5764257
H -5.5528823 0.6108048 -0.3607409
H -4.0945443 -1.4234292 -2.0710910
H -4.2913602 -0.0305487 -3.1326537
H -2.8397065 -1.0489516 -3.2694460
H 0.1172202 2.2835622 1.3552266
H 1.1575955 0.5780956 -1.4632885
H 1.2277710 1.9274100 -0.3530817
H 0.8032800 0.1472484 1.5691196
H 1.9280290 -1.6304617 2.5185314
H 2.7454415 -2.7598080 1.4333985
H 4.3796824 -2.0664504 3.0475931
H 4.8059627 -1.2402055 1.5510638
H 5.8885441 0.0117777 3.1201610
H 2.5796356 -0.9145056 -1.6214404
H 3.5408814 -2.1030342 -0.7252410
H 4.0118942 -0.4022499 -0.7147162
H -1.5538075 -2.4363807 -1.3708324
H -0.0157520 -2.5977417 -2.2660781
H -0.0249534 -1.8819769 -0.6282355
