22

O 2.3601632 -0.5041963 -1.5723345
C 2.0201601 -0.0591761 -0.4981934
O 2.5926770 1.0194921 0.0544677
C 0.8979900 -0.6533205 0.3324288
O 0.8632127 -2.0400982 0.0857136
C -0.4689710 0.0119566 0.0135291
C -0.4063327 1.5204824 0.2583520
C -0.8983608 -0.2712447 -1.4303873
C -1.5168466 -0.6203346 0.9421258
O -1.2681911 -0.3825522 2.3146192
H 3.2684860 1.3263890 -0.5736706
H 1.1163560 -0.4935238 1.3929277
H 1.1431488 -2.1447056 -0.8367180
H 0.2198445 2.0191870 -0.4864865
H -1.4092350 1.9587517 0.1964351
H 0.0085576 1.7503306 1.2461100
H -0.9654265 -1.3495352 -1.6181087
H -0.1977935 0.1543816 -2.1571318
H -1.8847541 0.1666236 -1.6184138
H -1.5065901 -1.7053887 0.8115973
H -2.5157156 -0.2520344 0.6556661
H -1.4520793 0.5486155 2.4876720
