43

C -4.2483024 2.0925160 1.1725032
O -4.6845771 2.2818468 2.2716557
C -3.1619420 1.2040661 0.7128022
C -3.0492231 1.3282494 -0.6643749
C -4.0665048 2.3435819 -1.1189421
O -4.7493031 2.7289277 0.0699156
C -2.1264747 0.5997727 -1.3975531
C -1.9638045 0.7866500 -2.8847704
C -1.3582672 -0.3218099 -0.6686415
C -1.4153371 -0.4532523 0.7263858
C -2.3118320 0.3625160 1.4315666
O -2.3866428 0.3548321 2.7837501
C -0.4640671 -1.4062876 1.4307954
C 0.8589013 -0.7526195 1.7540445
C 2.0596663 -1.0546217 1.2504545
C 3.2932201 -0.3012042 1.6740786
C 3.9595887 0.4489215 0.5191121
C 5.2522534 1.1004486 0.9441066
O 5.7793851 0.9791384 2.0243484
O 5.7854559 1.8534341 -0.0390727
C 2.2639478 -2.0992367 0.1806872
O -0.4608375 -1.1215007 -1.3495893
C -1.0570156 -2.2743346 -1.9163267
H -4.7965161 1.9310051 -1.8239115
H -3.6126207 3.2363329 -1.5635896
H -2.7723882 0.3043520 -3.4508711
H -1.9815811 1.8491698 -3.1537472
H -1.0127506 0.3603416 -3.2130784
H -1.6457199 -0.1524809 3.1388295
H -0.9229097 -1.7881013 2.3539724
H -0.3079765 -2.2830357 0.8000104
H 0.7771388 0.1005351 2.4319720
H 4.0290178 -0.9998666 2.0894467
H 3.0554066 0.4041993 2.4791836
H 3.2989148 1.2216709 0.1100491
H 4.1841851 -0.2294809 -0.3138840
H 6.6076159 2.2221577 0.3245599
H 1.6198416 -2.9725757 0.3227374
H 3.3016107 -2.4503310 0.1716658
H 2.0330785 -1.6863804 -0.8090874
H -1.4963321 -2.9162937 -1.1400491
H -1.8442454 -2.0126013 -2.6346173
H -0.2620605 -2.8188484 -2.4310264
