44

Cl 0.0626846 -5.0979380 -0.8736969
C -0.7095665 -3.5416611 -0.8154853
C -0.4887946 -2.6911362 0.2534868
N -1.0302564 -1.4760061 0.3290846
C -1.8231670 -1.0656067 -0.6603742
N -2.2994850 0.2511881 -0.5250084
C -3.3086568 0.8607786 -1.2874404
O -3.9098297 0.3668100 -2.2138978
C -3.4714755 2.2111457 -0.6962333
N -4.3423957 3.1516747 -1.0568618
C -4.2822948 4.2472282 -0.3129414
C -3.3885071 4.3950254 0.7595491
N -2.5215671 3.4422519 1.1015169
C -2.5771670 2.3601253 0.3442092
C -1.7364144 1.1324838 0.4973786
O -0.3592390 1.3539714 0.1741020
C 0.5331352 1.2079281 1.1905841
O 0.2470830 1.3125376 2.3633975
N 1.7796146 0.9339292 0.7094260
C 1.9553172 0.4340958 -0.6604677
C 3.3844341 -0.0878604 -0.8178624
N 3.7485968 -1.1013215 0.1663522
C 3.2765268 -0.8165723 1.5230815
C 2.8287330 0.6332749 1.6789481
C 3.4217956 -2.4520173 -0.2519407
C -2.1304922 -1.8720314 -1.7687819
C -1.5520665 -3.1274456 -1.8415264
H 0.1584214 -2.9908820 1.0761950
H -4.9736376 5.0479826 -0.5669534
H -3.3812532 5.3053842 1.3536790
H -1.7871930 0.6991782 1.5021432
H 1.7692431 1.2447596 -1.3728722
H 1.2330175 -0.3697800 -0.8608885
H 3.5235134 -0.5132906 -1.8178239
H 4.0769248 0.7625156 -0.7416164
H 2.4183380 -1.4624347 1.7815645
H 4.0743077 -1.0499358 2.2422240
H 2.4096810 0.8050206 2.6704973
H 3.6756780 1.3190490 1.5468249
H 3.9780992 -2.7048086 -1.1612816
H 2.3470498 -2.6080309 -0.4562701
H 3.7217407 -3.1585342 0.5287770
H -2.7974917 -1.5109709 -2.5388227
H -1.7531832 -3.7800720 -2.6862757
