44

Cl -1.4362755 -5.6298906 -0.6966005
C -1.8340319 -3.9421544 -0.7031028
C -1.4256988 -3.1217637 0.3346455
N -1.7065831 -1.8207844 0.3742479
C -2.4003975 -1.2835685 -0.6291154
N -2.6194450 0.1037352 -0.5283778
C -3.5239079 0.8661481 -1.2891366
O -4.2146657 0.4683922 -2.1991989
C -3.4418158 2.2347498 -0.7239598
N -4.1454409 3.3045989 -1.0896078
C -3.8705280 4.3901652 -0.3798911
C -2.9300592 4.4052554 0.6623160
N -2.2352145 3.3223406 1.0111276
C -2.5081140 2.2482170 0.2912911
C -1.8839460 0.9004079 0.4513338
O -0.5037512 0.8948177 0.0719100
C 0.3999508 0.7886437 1.0835394
O 0.1201512 0.8543931 2.2609834
N 1.6580531 0.6082328 0.6064242
C 2.7381360 0.5341029 1.5855211
C 4.0772632 0.6085568 0.8537751
N 4.2496948 -0.4420254 -0.1478769
C 2.9962822 -0.8971586 -0.7453112
C 1.9430795 0.2016068 -0.7668417
C 5.0384093 -1.5677766 0.3133345
C -2.8651463 -2.0358848 -1.7201366
C -2.5696302 -3.3885303 -1.7460533
H -0.8499541 -3.5278252 1.1627426
H -4.4180530 5.2936977 -0.6401488
H -2.7415540 5.3167818 1.2237559
H -1.9647558 0.5024066 1.4684161
H 2.6312625 1.3697017 2.2815198
H 2.6667655 -0.3917551 2.1760966
H 4.9059769 0.5495859 1.5685625
H 4.1519987 1.5944214 0.3716499
H 2.5707091 -1.7540478 -0.1893502
H 3.2000421 -1.2484520 -1.7653520
H 2.2796945 1.0616416 -1.3595736
H 1.0235597 -0.1725333 -1.2184291
H 6.0322270 -1.2307077 0.6256656
H 4.5791340 -2.1184867 1.1568198
H 5.1734457 -2.2732867 -0.5133091
H -3.4363912 -1.5661134 -2.5083673
H -2.9107773 -4.0099543 -2.5688390
