25

O -1.7871177 -3.0086928 -1.9426570
C -0.9332400 -2.2912143 -1.2136715
O 0.2177164 -2.6247356 -1.0089954
C -1.5314908 -1.0435597 -0.6833488
N -2.7112512 -0.6390496 -1.0870649
O -2.9306532 0.5405945 -0.4274644
C -1.8872108 0.8299066 0.3699936
C -0.9392092 -0.1435659 0.2550510
C 0.3986571 -0.1856920 0.9214296
C 1.4792608 0.5680282 0.1313375
N 1.8509051 -0.0449367 -1.1421999
C 2.7394221 0.7489995 0.9963471
O 2.6878818 1.1103210 2.1460729
O 3.8749753 0.4926213 0.3514196
C -1.9735330 2.0877594 1.1584042
H -1.3033177 -3.7985716 -2.2400642
H 0.3476500 0.2658605 1.9173443
H 0.7093740 -1.2251428 1.0634515
H 1.1142025 1.5854281 -0.0644618
H 1.6402500 -1.0411341 -1.1163767
H 1.3305131 0.3485153 -1.9183371
H 3.5866257 0.2179505 -0.5542193
H -1.1816970 2.1239051 1.9101649
H -2.9382608 2.1620988 1.6658774
H -1.8606542 2.9644057 0.5119682
