39

S 0.6050193 -0.0683785 2.4307231
O -0.0109316 1.1625780 1.9382441
O 0.0751368 -0.7067322 3.6218694
N 2.2147927 0.2143280 2.7674495
C 3.0653351 0.7518475 1.8086977
O 2.7241017 0.8480435 0.6508192
C 4.4273431 1.1440461 2.3392498
C 5.3480081 1.6258870 1.2256640
C 0.7033982 -1.2407556 1.1052038
C -0.1892968 -1.2175476 0.0058087
N -1.0440721 -0.1615885 -0.1808708
C -1.9328802 0.0691821 -1.2338592
C -3.1708955 0.6267803 -0.9045756
C -4.0979658 0.9050288 -1.8981656
C -3.7978607 0.6598189 -3.2365653
C -2.5520805 0.1392608 -3.5651932
C -1.6179020 -0.1566447 -2.5764256
C -5.4396039 1.4805706 -1.5400209
F -5.5627480 1.7052170 -0.2203389
F -5.6592090 2.6507525 -2.1709015
F -6.4416328 0.6568139 -1.9042759
C -0.1713212 -2.3446632 -0.8250427
C 0.7471093 -3.3558184 -0.5840459
N 1.6242713 -3.3598633 0.4224081
C 1.5768473 -2.3167604 1.2464279
H 2.4429420 0.2218337 3.7537972
H 4.2964234 1.9239179 3.1017377
H 4.8587302 0.2735594 2.8508127
H 6.3374568 1.8763863 1.6196129
H 4.9296670 2.5083170 0.7351414
H 5.4597603 0.8525839 0.4612864
H -1.0399963 0.5220859 0.5784564
H -3.4020786 0.8375842 0.1374926
H -4.5313073 0.8836821 -4.0036575
H -2.3026347 -0.0491796 -4.6042027
H -0.6398774 -0.5451932 -2.8447080
H -0.8846176 -2.4556868 -1.6340541
H 0.7770608 -4.2191238 -1.2458216
H 2.2753153 -2.3418734 2.0811204
