36

C 4.2406466 0.6318525 0.9138345
C 4.8557469 0.6186222 -0.4606619
C 3.4369568 1.0638202 -0.2848415
N 2.3626363 0.2704498 -0.8054571
C 1.2357965 0.1033884 0.1021688
C 0.2186844 -0.7830521 -0.6415296
C -1.0142676 -1.1513470 0.2043927
N -0.6006333 -2.2266724 1.1192693
C -1.7151302 0.0057025 0.9345445
C -2.2576212 1.1649569 0.0881005
C -3.3135882 0.7844793 -0.9545005
C -4.6094239 0.2427254 -0.3544437
O -0.2075704 -0.0736562 -1.7731320
O 0.8540853 -1.9761581 -1.0578395
H 4.0041494 -0.3274970 1.3695079
H 4.5590018 1.3974201 1.6143561
H 5.6074105 1.3646161 -0.7029103
H 5.0262202 -0.3486461 -0.9271990
H 3.2580669 2.1345838 -0.3776745
H 2.6853577 -0.6560315 -1.0740824
H 0.7834142 1.0796671 0.3071022
H 1.5303079 -0.3489229 1.0647875
H -1.6917333 -1.5952579 -0.5312010
H -1.3972936 -2.7978874 1.3840564
H -0.2251245 -1.8397810 1.9825129
H -1.0291559 0.4060044 1.6955642
H -2.5446325 -0.4365888 1.5060348
H -1.4289925 1.6764707 -0.4118502
H -2.7006826 1.9020521 0.7728901
H -2.8950487 0.0602734 -1.6628693
H -3.5466555 1.6795557 -1.5457511
H -5.0552309 0.9711525 0.3332555
H -5.3441349 0.0263030 -1.1366102
H -4.4450027 -0.6839525 0.2061603
H 0.6089649 0.2293265 -2.2037912
H 0.7543756 -2.5681724 -0.2849920
