35

N -3.9805910 1.0857481 0.1806667
C -4.0383078 0.2463976 -0.8648134
N -3.2642497 -0.8208761 -1.0829875
C -2.3054047 -1.0551859 -0.1859165
C -2.1262783 -0.2416494 0.9581507
C -3.0176018 0.8048929 1.0617120
C -1.0465367 -0.5165062 1.9679913
C 0.3749414 -0.3936478 1.4352097
C 0.7051839 0.6018825 0.5106998
C 2.0050928 0.7105919 0.0214589
C 2.9999447 -0.1788334 0.4681433
C 2.6689873 -1.1535824 1.3948506
C 1.3694889 -1.2607886 1.8799307
O 4.2970281 -0.0594810 0.0445065
C 4.5254363 -0.5262865 -1.2765659
O 2.4082712 1.6372998 -0.8885903
C 1.4416165 2.5525547 -1.3551493
N -1.5303548 -2.1617695 -0.3960878
N -4.9757340 0.5178476 -1.8197825
H -2.9584483 1.4773563 1.9214878
H -1.1684829 -1.5268287 2.3799215
H -1.1816331 0.1731019 2.8115378
H -0.0609612 1.2916506 0.1701355
H 3.4507793 -1.8287734 1.7272899
H 1.1285640 -2.0336988 2.6063945
H 5.5858068 -0.3607594 -1.4820110
H 4.3047513 -1.5998297 -1.3556154
H 3.9208082 0.0280685 -2.0030164
H 1.9567611 3.2109812 -2.0566241
H 0.6230260 2.0341833 -1.8718731
H 1.0284232 3.1506291 -0.5324296
H -1.6401806 -2.5595923 -1.3181850
H -0.5796934 -2.1416556 -0.0523021
H -5.7251637 1.1337599 -1.5451670
H -5.1952895 -0.2373023 -2.4514704
