66

C 0.8651599 -1.7928441 -0.4922895
C 0.3428837 -2.9726614 -1.3318824
C -1.1064926 -3.2754234 -1.0303983
C -2.1271600 -2.9317012 -1.9203189
C -3.4655596 -3.0331548 -1.5568496
C -3.7962997 -3.4852143 -0.2800778
C -2.7955957 -3.9289790 0.5822982
C -1.4653885 -3.8101348 0.2111877
O -5.0880947 -3.4893773 0.1725598
C -5.7232298 -2.2158968 0.2565930
C -5.0676056 -1.2346015 1.2299720
C -3.9117535 -0.4270871 0.6462648
C -3.3251776 0.5229607 1.6784009
O -3.7082653 0.5599006 2.8328891
N -2.3396547 1.3856947 1.2350737
C -1.5113673 1.1433415 0.0730118
C -0.4066050 0.1201291 0.4005409
O 0.0485328 0.0178953 1.5316945
N 0.0089903 -0.6335995 -0.6473447
C -0.9038555 2.4632388 -0.4093011
C -0.3311735 2.3680014 -1.8157581
O -0.5284323 1.4106388 -2.5555815
N 0.4074672 3.4351203 -2.2090222
C 2.3152001 -1.4625496 -0.8513026
O 3.0547499 -2.6618065 -0.7897725
C 2.9131821 -0.4145202 0.0905811
N 4.3034350 -0.1570171 -0.2989514
S 5.2941925 0.6392322 0.7775399
O 5.2050917 -0.0891909 2.0292779
O 6.5496216 0.8287221 0.0736214
C 4.5697611 2.2417328 1.0437619
C 4.8251277 3.2625592 0.1316927
C 4.2414269 4.5088117 0.3314049
C 3.4299851 4.7327758 1.4410971
C 3.2001487 3.7100941 2.3581758
C 3.7719353 2.4576641 2.1653734
H 0.8370651 -2.0591483 0.5716871
H 0.9739163 -3.8455063 -1.1335694
H 0.4642752 -2.7313141 -2.3978992
H -1.8741125 -2.5429500 -2.9048032
H -4.2529858 -2.7408616 -2.2481154
H -3.0795733 -4.3117841 1.5599701
H -0.6875660 -4.1151411 0.9096124
H -6.7391268 -2.4500925 0.5839675
H -5.7918399 -1.7619737 -0.7437574
H -4.7307660 -1.7716400 2.1226275
H -5.8307512 -0.5244152 1.5686239
H -4.2565162 0.1611088 -0.2163383
H -3.0979528 -1.0658288 0.2790870
H -1.8408234 1.7843727 2.0246623
H -2.1414843 0.7589297 -0.7354694
H -0.2865318 -0.3574002 -1.5775019
H -1.6985213 3.2186672 -0.4010434
H -0.1337825 2.8027439 0.2950188
H 0.5530921 4.2371277 -1.6187291
H 0.7848723 3.4395498 -3.1440302
H 2.3325482 -1.0614395 -1.8837109
H 3.9902216 -2.4103767 -0.7824270
H 2.9192462 -0.8052037 1.1130280
H 2.3175287 0.5069777 0.0839902
H 4.4325278 0.2071133 -1.2388870
H 5.4893478 3.0844006 -0.7100976
H 4.4292493 5.3110849 -0.3765492
H 2.9797050 5.7099037 1.5952905
H 2.5761717 3.8895631 3.2294171
H 3.6171974 1.6506779 2.8769985
