36

C 4.1838253 1.2880671 -0.7927217
C 4.0973495 -0.1724242 -1.1436781
C 3.7115472 0.3017313 0.2334555
N 2.3509811 0.3073311 0.6815477
C 1.6434640 -0.9592442 0.5771113
C 0.3412163 -0.8788622 1.3870670
C -0.7481299 -0.0050321 0.7366966
N -0.3143280 1.3918903 0.7635637
C -1.0953616 -0.4466964 -0.6868990
C -2.3770977 0.1647147 -1.2632214
C -3.6664844 -0.2497002 -0.5526083
C -4.9084995 0.3512428 -1.2053240
O 0.6573522 -0.3824163 2.6745515
O -0.2057727 -2.1646283 1.5351910
H 3.4487345 1.9562726 -1.2345947
H 5.1661209 1.7337355 -0.6623869
H 3.3006347 -0.4835584 -1.8148594
H 5.0190186 -0.7374884 -1.2440115
H 4.4214408 0.0701713 1.0273267
H 1.8000842 1.0692219 0.2856210
H 2.2421080 -1.7441754 1.0512735
H 1.4513087 -1.2758504 -0.4578107
H -1.6172951 -0.1726314 1.3929457
H -0.2391850 1.6875656 1.7331502
H -1.0114319 1.9871313 0.3268620
H -0.2635218 -0.1726827 -1.3489299
H -1.1756311 -1.5411155 -0.7066880
H -2.4509364 -0.1304592 -2.3185159
H -2.2997940 1.2621962 -1.2689501
H -3.6306506 0.0565409 0.5007805
H -3.7401369 -1.3454865 -0.5509263
H -4.9927818 0.0437804 -2.2540253
H -4.8703855 1.4464070 -1.1834426
H -5.8219775 0.0390487 -0.6893597
H 1.4214161 0.2058015 2.5220433
H 0.1728988 -2.5004989 2.3572677
