25

O -1.3335893 -3.3701270 -1.9495412
C -0.6841062 -2.2184551 -1.7790374
O 0.3397005 -1.9594979 -2.3592365
C -1.3375792 -1.2668233 -0.8266143
N -2.4955092 -1.5719022 -0.3022265
O -2.8348663 -0.5100750 0.4887826
C -1.8725215 0.4291958 0.4259558
C -0.8655305 0.0024382 -0.3908364
C 0.4398517 0.6619635 -0.7009445
C 1.4430499 0.6356724 0.4640040
N 2.6331135 1.4643544 0.2526263
C 1.9017937 -0.7929902 0.8282114
O 1.1681281 -1.7484115 0.8301674
O 3.1839454 -0.8626503 1.1915875
C -2.0896041 1.6671556 1.2252699
H -2.1465888 -3.3716028 -1.4150418
H 0.8810267 0.1773982 -1.5795174
H 0.2657905 1.7158899 -0.9538669
H 0.9376538 1.0056658 1.3659958
H 2.8869715 1.4763219 -0.7322152
H 2.4730432 2.4241130 0.5369706
H 3.5347552 0.0498984 1.0717564
H -3.1557796 1.8867030 1.3062317
H -1.6909751 1.5584631 2.2413139
H -1.5823780 2.5174026 0.7601043
