24

C -0.4583381 -1.2779116 -0.5054291
C -0.9510830 -1.9834309 0.7745989
O -0.8739789 -3.1853238 0.8497924
O -1.3725340 -1.2397374 1.7906213
C 1.0446250 -0.9530967 -0.3834882
C 1.4398374 0.0758619 0.6714440
C 2.9383358 0.2392962 0.7122200
O 3.7334593 -0.3669906 0.0353328
O 3.3120521 1.1615860 1.6193687
N -1.2861301 -0.1767292 -1.0184235
C -1.6732607 0.9563229 -0.3905466
O -1.4265881 1.1940774 0.7959218
C -2.4373053 1.9536416 -1.2302357
H -0.5404649 -2.0580489 -1.2624004
H -1.3625120 -0.2757174 1.5609176
H 1.5639440 -1.8931209 -0.1683285
H 1.4057488 -0.6209828 -1.3615321
H 1.1077653 -0.2158898 1.6771140
H 0.9923648 1.0584466 0.4880472
H 4.2822832 1.1982437 1.5845761
H -1.5543455 -0.2586297 -1.9876770
H -1.8328753 2.8591558 -1.3377114
H -2.7036967 1.5806580 -2.2230103
H -3.3472002 2.2285165 -0.6910722
