36

C 4.5275517 1.6013440 0.5220806
C 4.3644996 0.2567285 -0.1314566
C 3.2498507 0.8366313 0.6866716
N 2.0984098 1.3186249 -0.0222192
C 1.2813057 0.3022180 -0.6631160
C 0.4328715 -0.5902631 0.2580383
C -0.5129728 -1.5154269 -0.5543114
N -1.2913652 -2.4172091 0.2896295
C -1.4411097 -0.8075346 -1.5525388
C -2.3260807 0.3499749 -1.0785518
C -3.3520641 0.0043563 0.0012013
C -4.4335876 1.0737171 0.1340920
O 1.3234516 -1.3918445 1.0183558
O -0.3464119 0.1902411 1.1540202
H 5.1853256 1.6957884 1.3816520
H 4.4968219 2.4679818 -0.1307027
H 4.9100173 -0.5962813 0.2658110
H 4.2222300 0.2420431 -1.2094432
H 3.0773246 0.3791940 1.6636475
H 1.5357218 1.9222136 0.5679343
H 0.6337087 0.8162714 -1.3838394
H 1.9493121 -0.3522574 -1.2295151
H 0.1468385 -2.1512111 -1.1568563
H -1.6978078 -1.9101489 1.0686031
H -0.7158538 -3.1631752 0.6660072
H -0.8425354 -0.4633397 -2.4078138
H -2.0919340 -1.5991508 -1.9468115
H -2.8742339 0.7005646 -1.9641645
H -1.7135966 1.1967877 -0.7483483
H -3.8124197 -0.9640935 -0.2421190
H -2.8567649 -0.1146756 0.9685499
H -5.1707320 0.8043812 0.8977097
H -4.9701492 1.2184210 -0.8110241
H -3.9962222 2.0376662 0.4193956
H 0.7985019 -1.7371092 1.7522090
H 0.2123973 0.3585721 1.9243232
