45

S -0.6304360 0.9760303 0.2643015
C -1.1808177 0.1769492 -1.1713407
C -0.2524916 -0.7220701 -1.6162795
C 0.9131658 -0.7703363 -0.8014607
C 0.8696342 0.0984695 0.2526132
C 1.8710372 0.2725539 1.3741231
O 1.5255070 -0.5042113 2.5081425
C 3.2986138 0.0360852 0.9074413
C 4.1231651 -0.9171217 1.4919921
C 5.4404192 -1.0882946 1.0693649
C 5.9440796 -0.2876287 0.0461006
O 7.2092298 -0.3692333 -0.4457059
C 8.0959941 -1.2648075 0.1883165
C 5.1248697 0.6806813 -0.5436134
C 3.8200277 0.8380586 -0.1130079
C -2.4397778 0.6225859 -1.8768674
O -2.2264343 1.8384685 -2.5695212
C -3.6442309 0.6805649 -0.9558698
C -4.3847891 1.8528721 -0.7999022
C -5.4990137 1.8876623 0.0196029
C -5.9061769 0.7311816 0.6916065
O -7.0202814 0.8541737 1.4599842
C -7.4786282 -0.2956994 2.1359488
C -5.1770087 -0.4487391 0.5431852
C -4.0509118 -0.4616589 -0.2763009
H -0.3983150 -1.3212189 -2.5088293
H 1.7724493 -1.4048176 -0.9972540
H 1.8089110 1.3126888 1.7212532
H 1.2661892 -1.3830001 2.1986003
H 3.7428983 -1.5293418 2.3062257
H 6.0592273 -1.8400164 1.5493923
H 8.2217721 -1.0178780 1.2513369
H 7.7512483 -2.3041678 0.1019284
H 9.0528165 -1.1581051 -0.3257401
H 5.5413800 1.2956508 -1.3350190
H 3.1869705 1.5944334 -0.5740613
H -2.6489324 -0.1221093 -2.6581106
H -1.7368726 2.4203064 -1.9697020
H -4.0821732 2.7440516 -1.3434559
H -6.0785358 2.7967085 0.1530983
H -8.3792959 0.0093686 2.6705999
H -7.7290144 -1.1029666 1.4351449
H -6.7342551 -0.6628815 2.8546014
H -5.4742217 -1.3575025 1.0551482
H -3.4870119 -1.3856159 -0.3899817
