44

Cl -3.4156380 -5.8866956 -1.5661265
C -3.1236731 -4.1989117 -1.3069066
C -3.7888966 -3.2497096 -2.0710210
N -3.6129107 -1.9434014 -1.9189992
C -2.7596194 -1.5211818 -0.9929444
N -2.6081418 -0.1330184 -0.8328816
C -3.1901183 0.8806431 -1.6451926
O -3.6861792 0.7461863 -2.7315342
C -3.0183558 2.1324087 -0.8675215
N -3.4588539 3.3520203 -1.1793328
C -3.1417540 4.2744330 -0.2797264
C -2.4137352 3.9912101 0.8864001
N -1.9793340 2.7640045 1.1799062
C -2.3018303 1.8576275 0.2758971
C -1.9073289 0.4166205 0.3176973
O -0.5012980 0.2776600 0.0829160
C 0.2949677 0.1691106 1.1836458
O -0.1043795 -0.1572076 2.2819317
N 1.5874839 0.4426738 0.8713669
C 2.5929193 0.3835858 1.9149405
C 3.7575703 -0.5111815 1.4826203
N 3.9950197 -0.4318532 0.0413627
C 3.5301947 0.8105487 -0.5448399
C 2.0042786 0.8551362 -0.4661050
C 5.3696628 -0.7378965 -0.2812313
C -2.0378632 -2.4059221 -0.1729156
C -2.2269294 -3.7683173 -0.3387467
H -4.4936594 -3.5620996 -2.8382572
H -3.4749867 5.2898066 -0.4838928
H -2.1784611 4.7810737 1.5939684
H -2.1745543 -0.0743766 1.2601076
H 2.9521017 1.3967201 2.1520418
H 2.1146076 -0.0075305 2.8128109
H 3.5495061 -1.5588276 1.7391157
H 4.6569438 -0.2155373 2.0509178
H 3.9705224 1.7052064 -0.0595940
H 3.8403242 0.8365961 -1.5953375
H 1.5790515 0.1600282 -1.1964751
H 1.6307586 1.8623757 -0.6926186
H 5.5013197 -0.7724202 -1.3677316
H 6.0864643 -0.0017458 0.1323917
H 5.6276340 -1.7241886 0.1194674
H -1.3504700 -2.0382618 0.5805627
H -1.6922601 -4.4850911 0.2768635
