25

O -1.3018762 -3.7286710 -1.2388852
C -0.7498768 -2.9281077 -0.3262894
O 0.0478218 -3.3269538 0.4836690
C -1.2283717 -1.5076941 -0.3757755
N -2.2043730 -1.2057673 -1.1908792
O -2.4511775 0.1207833 -0.9992107
C -1.6198625 0.6128624 -0.0601109
C -0.7765394 -0.3766402 0.3660281
C 0.4273572 -0.3031115 1.2581784
C 1.5944530 0.5081241 0.6805469
N 1.2812071 1.9328018 0.6134152
C 1.9874805 -0.0000919 -0.7004078
O 1.6811033 -1.0607193 -1.1830007
O 2.8098426 0.8644708 -1.3358102
C -1.7912619 2.0528259 0.2682378
H -1.9411604 -3.2271302 -1.7744257
H 0.7694811 -1.3230530 1.4510996
H 0.1574620 0.1425216 2.2241449
H 2.4805413 0.2977328 1.3097176
H 2.0141426 2.4253380 0.1113989
H 1.2562371 2.3122905 1.5557146
H 3.0259767 0.4488514 -2.1869967
H -1.6130016 2.2361799 1.3306721
H -2.7965236 2.3863898 0.0056596
H -1.0590815 2.6468691 -0.2866885
