50

O 6.6326935 1.9253439 0.4396371
C 5.4780574 1.9001020 -0.2684450
O 5.4535628 2.3412898 -1.3859701
C 4.2830620 1.2562576 0.4320369
C 2.9721592 1.5098951 -0.3351532
C 2.6892020 0.3776076 -1.3222739
C 2.4019595 -0.9647095 -0.5966323
C 3.2581936 -1.0502826 0.7107241
C 4.5570623 -0.2579043 0.5993239
C 2.8404247 -2.0461332 -1.5144466
N 3.1952609 -2.8829366 -2.2319656
C 0.9180748 -1.1936648 -0.2401428
C 0.5308373 -2.4473423 0.2246656
C -0.7768424 -2.6915357 0.6349164
C -1.7350513 -1.6867260 0.5845830
O -3.0320620 -1.8429415 0.9678062
C -3.4334602 -3.1169388 1.4223047
C -1.3638165 -0.4158577 0.1069977
C -0.0476383 -0.1865310 -0.2810178
O -2.2257228 0.6434776 0.0749711
C -3.5148454 0.5047751 -0.5395345
C -4.6044537 0.6558611 0.5325377
C -5.0098078 2.1521444 0.5215459
C -4.0454929 2.8322538 -0.4667923
C -3.6930567 1.7144666 -1.4489858
H 6.4938640 1.5420912 1.3167437
H 4.2011558 1.7111311 1.4291001
H 3.0403408 2.4621167 -0.8672328
H 2.1465359 1.5867191 0.3834951
H 3.5676480 0.2578134 -1.9645657
H 1.8565203 0.6155959 -1.9918442
H 2.6571158 -0.6575553 1.5379197
H 3.4619546 -2.0992517 0.9489995
H 5.1781550 -0.4295304 1.4862572
H 5.1291140 -0.6223043 -0.2612855
H 1.2527597 -3.2603000 0.2739787
H -1.0439610 -3.6780846 0.9944487
H -2.8837557 -3.4157402 2.3246541
H -3.2887771 -3.8797870 0.6464327
H -4.4953381 -3.0366735 1.6589905
H 0.1953155 0.8163584 -0.6208826
H -3.5654590 -0.4467546 -1.0770016
H -4.2202394 0.3231813 1.4962658
H -5.4607253 0.0201686 0.2803653
H -4.9657065 2.6040831 1.5175351
H -6.0433209 2.2529470 0.1700895
H -4.4811450 3.7098999 -0.9541068
H -3.1394597 3.1532723 0.0560953
H -4.5273707 1.5310568 -2.1400032
H -2.7934081 1.9093633 -2.0395996
