57

C -2.0001975 -0.5257307 -1.3831527
C -2.6238324 -1.0655617 -0.0728031
C -2.7337766 -2.5997795 -0.1704089
O -1.8643583 -3.3749891 -0.5250161
N -3.9880286 -2.9396071 0.2226086
C -4.8687339 -1.8212414 0.4476129
N -4.0284149 -0.6775262 0.1296145
C -4.5102998 0.6129274 0.3276214
C -5.8427904 0.8145780 0.7345853
C -6.3559568 2.0936494 0.9098686
C -5.5692785 3.2167590 0.6858386
C -4.2520875 3.0330250 0.2821202
C -3.7252810 1.7580812 0.1055244
C -1.7388378 -0.7253638 1.1529439
C -0.2843074 -1.1515224 0.9282257
N 0.2789706 -0.6607737 -0.3324203
C 0.9989590 -1.6901909 -1.0758891
C 2.3435915 -2.0071051 -0.4165296
C 3.1152863 -0.7503649 -0.1374171
C 4.3359470 -0.4290920 -0.5782186
C 5.0631529 0.7524922 -0.0395610
C 6.4537964 0.8577190 -0.1730054
C 7.1551611 1.9500980 0.3207550
C 6.4498148 2.9576459 0.9565826
C 5.0733666 2.8976631 1.1122204
C 4.3903871 1.7959787 0.6158088
F 7.1157186 4.0220620 1.4344463
C 5.0317707 -1.2479363 -1.6423400
C -0.6400946 0.1378359 -1.1298923
H -1.8604640 -1.3585091 -2.0820738
H -2.6869184 0.1790246 -1.8614925
H -4.2966968 -3.8941371 0.1519790
H -5.7410338 -1.8509086 -0.2205119
H -5.2150584 -1.7797698 1.4923338
H -6.4918989 -0.0347021 0.9130482
H -7.3906919 2.2076176 1.2269060
H -5.9741965 4.2152045 0.8235034
H -3.6151642 3.8937773 0.0978121
H -2.6922298 1.6647207 -0.2094467
H -2.1410696 -1.2365776 2.0335082
H -1.7890639 0.3486774 1.3626448
H -0.2447390 -2.2488305 0.9427741
H 0.3306191 -0.8025473 1.7730702
H 1.1873904 -1.2989164 -2.0819754
H 0.3904566 -2.6038529 -1.1817061
H 2.1603178 -2.5212532 0.5362484
H 2.9034842 -2.7108876 -1.0405521
H 2.5690863 -0.0627727 0.5063657
H 7.0054916 0.0642000 -0.6680942
H 8.2322050 2.0313434 0.2109397
H 4.5547010 3.7048322 1.6212027
H 3.3092361 1.7678191 0.7250367
H 5.7675919 -1.9331773 -1.2034649
H 4.3193162 -1.8426527 -2.2205976
H 5.5619400 -0.5982390 -2.3455040
H -0.7807786 1.1019942 -0.6264552
H -0.1523183 0.3651090 -2.0832278
