50

O 6.8171817 1.3020126 -0.9654949
C 6.1178078 0.3253879 -0.3496819
O 6.5685964 -0.2887957 0.5879608
C 4.7414151 0.1379445 -0.9608643
C 4.0360769 -1.1056915 -0.3922322
C 3.1954739 -0.7444073 0.8330576
C 2.0134575 0.2031942 0.4756643
C 2.4120737 1.1086067 -0.7354374
C 3.9055997 1.4222032 -0.7362698
C 1.8029781 1.0831453 1.6542106
N 1.6524009 1.7803203 2.5664745
C 0.6898550 -0.5229586 0.1622331
C 0.6194373 -1.8810969 -0.1247750
C -0.5952622 -2.4925049 -0.4398437
C -1.7663638 -1.7488030 -0.4807427
O -3.0030047 -2.2444023 -0.7493390
C -3.1051870 -3.6254728 -1.0199012
C -1.7061987 -0.3674458 -0.2165328
C -0.4915355 0.2243665 0.0949824
O -2.8393028 0.3870949 -0.3207380
C -3.7606447 0.2954487 0.7750992
C -5.1323964 0.5780824 0.1873191
C -5.0904499 2.0916351 -0.0795612
C -4.1137805 2.6799772 0.9730702
C -3.5051257 1.4671314 1.7144469
H 7.6684233 1.3582280 -0.4996929
H 4.8963440 0.0028405 -2.0380461
H 3.3880126 -1.5348270 -1.1668976
H 4.7822172 -1.8611334 -0.1311029
H 2.8122909 -1.6378349 1.3356847
H 3.8451900 -0.2463780 1.5601550
H 1.8170899 2.0277265 -0.7166800
H 2.1415230 0.5868310 -1.6599594
H 4.1805409 1.8770614 0.2228755
H 4.1472123 2.1556069 -1.5094999
H 1.5066967 -2.5083015 -0.1051891
H -0.6166706 -3.5583663 -0.6370551
H -2.7799855 -4.2249082 -0.1590155
H -2.5087651 -3.9056492 -1.8983939
H -4.1602613 -3.8182887 -1.2208358
H -0.4781594 1.2936280 0.2896869
H -3.6819742 -0.6837339 1.2592130
H -5.9111630 0.3234587 0.9186775
H -5.2986824 -0.0243874 -0.7105513
H -4.7114196 2.2836848 -1.0859408
H -6.0865543 2.5418661 -0.0220916
H -3.3351076 3.2668007 0.4789623
H -4.6225291 3.3511777 1.6717118
H -4.0200429 1.2893990 2.6662162
H -2.4369277 1.5808271 1.9303633
