36

C 3.3105717 2.4528416 -0.4056565
C 3.9087203 1.2271798 -1.0514832
C 3.1536656 1.1158874 0.2455813
N 1.8702268 0.4747717 0.3348329
C 1.9895874 -0.9566742 0.5508144
C 0.7480107 -1.6558158 1.1155029
C -0.5207538 -1.5158512 0.2424676
N -1.3805702 -2.6519075 0.6022401
C -1.2342428 -0.1684113 0.3814913
C -2.2968270 0.0250077 -0.6995529
C -3.0292171 1.3616892 -0.5982626
C -4.0979358 1.5293473 -1.6751724
O 1.1178803 -3.0101996 1.2027107
O 0.4253886 -1.1503818 2.4003158
H 3.9835226 3.1720101 0.0541686
H 2.4369806 2.9046066 -0.8700367
H 3.4267995 0.8450645 -1.9496542
H 4.9870230 1.1008516 -1.0325757
H 3.7464113 0.9525923 1.1449041
H 1.3407999 0.6558251 -0.5125327
H 2.7550922 -1.1171474 1.3151678
H 2.3012747 -1.5124674 -0.3482067
H -0.2118043 -1.6632735 -0.8024925
H -2.0523475 -2.8552937 -0.1312369
H -1.9085668 -2.4211129 1.4415099
H -1.7029101 -0.1169043 1.3726512
H -0.5136678 0.6528543 0.3485314
H -3.0314830 -0.7904625 -0.6404045
H -1.8329534 -0.0563666 -1.6939634
H -3.4900784 1.4457539 0.3952675
H -2.3005165 2.1809238 -0.6708587
H -4.8534695 0.7380789 -1.6045518
H -4.6119559 2.4918978 -1.5853016
H -3.6560720 1.4767932 -2.6771678
H 0.2672877 -3.4947538 1.1862760
H 0.9558308 -1.6670528 3.0218795
