50

O 7.1139942 0.3588057 0.6370154
C 6.2289231 0.8185789 -0.2834438
O 6.5444548 1.7216132 -1.0108486
C 4.8593240 0.1506896 -0.2838319
C 4.0606802 0.5914078 0.9555962
C 2.6816117 -0.0683646 0.9855551
C 1.8739827 0.2152069 -0.3107061
C 2.7086503 -0.1869580 -1.5567121
C 4.0906695 0.4664966 -1.5684861
C 1.6466150 1.6806661 -0.3695646
N 1.4848164 2.8264878 -0.4029310
C 0.5314572 -0.5331889 -0.2965012
C 0.5171108 -1.9170871 -0.1720311
C -0.6820870 -2.6276169 -0.1403384
C -1.8972021 -1.9578865 -0.2335168
O -3.1188274 -2.5494573 -0.1977888
C -3.1619885 -3.9539578 -0.0724312
C -1.8930283 -0.5567550 -0.3718209
C -0.6903874 0.1343351 -0.4106797
O -3.0727898 0.1213507 -0.5251597
C -3.8263683 0.3188600 0.6796373
C -5.1867781 0.8448196 0.2461753
C -4.9177718 2.3219933 -0.1058946
C -3.6427699 2.7247222 0.6827085
C -3.2286002 1.4709482 1.4801517
H 6.7354510 -0.3825137 1.1296931
H 5.0144796 -0.9390026 -0.2227823
H 4.6142409 0.3375831 1.8682817
H 3.9516094 1.6827829 0.9439626
H 2.7956968 -1.1531786 1.0966104
H 2.1006431 0.2771468 1.8463044
H 2.8174333 -1.2787964 -1.5538984
H 2.1462255 0.0698476 -2.4600360
H 4.0010170 1.5531748 -1.6722285
H 4.6613841 0.1207072 -2.4363435
H 1.4476126 -2.4789917 -0.0966078
H -0.6582453 -3.7060545 -0.0358416
H -2.7012349 -4.2849749 0.8675668
H -4.2182600 -4.2234462 -0.0721875
H -2.6602437 -4.4463770 -0.9157503
H -0.7101085 1.2134884 -0.5288875
H -3.8812948 -0.6207078 1.2394708
H -5.5840278 0.2604544 -0.5885428
H -5.8939312 0.7629523 1.0821793
H -5.7765972 2.9521583 0.1467024
H -4.7464635 2.4325198 -1.1794289
H -2.8465958 3.0075358 -0.0136714
H -3.8112771 3.5824760 1.3413506
H -3.6769378 1.4746309 2.4815878
H -2.1443676 1.3711757 1.6041419
