40

O 4.6584129 2.7933274 -0.1630798
C 4.8187588 1.7558744 0.4515266
C 6.2074305 1.2258003 0.7348361
C 3.6399979 0.9710424 0.9316348
C 2.3647431 1.4176646 0.5781604
C 1.2328945 0.7164526 0.9574659
C 1.3727469 -0.4543659 1.7091369
C 2.6359619 -0.8884465 2.1047492
C 3.7629160 -0.1834664 1.7068147
N 0.2304318 -1.2170493 2.0729054
C -0.8751281 -1.4725097 1.2790839
O -1.9790701 -1.5767146 1.7889340
C -0.6534875 -1.6358315 -0.1791771
C 0.4079169 -2.2824717 -0.8552074
N 0.1982960 -2.3454550 -2.1595256
N -0.9933458 -1.7476889 -2.3289590
C -1.5475588 -1.2739213 -1.1871636
C -2.7950771 -0.5023228 -1.1583572
C -3.8734640 -0.8427208 -1.9867733
C -5.0560421 -0.1322764 -1.9636879
Cl -6.3794751 -0.5833368 -2.9869315
C -5.1963554 0.9675333 -1.1054970
O -6.3712344 1.6343721 -1.1081494
C -4.1289540 1.3325882 -0.2922514
C -2.9352395 0.6177485 -0.3287793
O -1.8633107 1.0510788 0.4013588
H 6.3257195 0.2127303 0.3350050
H 6.9345562 1.8901648 0.2662390
H 6.3942592 1.1814605 1.8137503
H 2.2858481 2.3244879 -0.0130099
H 0.2316378 1.0520091 0.6814253
H 2.7228485 -1.7884630 2.7073744
H 4.7433616 -0.5436858 2.0058011
H -0.0155809 -1.2257574 3.0550060
H 1.3001291 -2.7115473 -0.4252658
H -1.3412362 -1.6151662 -3.2692616
H -3.7928036 -1.6995189 -2.6509814
H -6.3268273 2.3468802 -0.4569823
H -4.2162937 2.1989826 0.3647193
H -2.1282826 1.0322094 1.3387120
