40

O 5.4911935 3.3093612 1.7578539
C 5.4436877 2.1180298 1.9978156
C 6.5362451 1.4390486 2.7970343
C 4.3003521 1.2925988 1.5045260
C 3.3052311 1.9124969 0.7454490
C 2.2228818 1.2039896 0.2494316
C 2.1201492 -0.1652678 0.5150333
C 3.1074647 -0.7939317 1.2832330
C 4.1860838 -0.0725384 1.7690967
N 1.0598338 -0.9600191 0.0447973
C -0.0020963 -0.6037149 -0.7527950
O -0.1385187 0.5188273 -1.2161496
C -0.9534207 -1.7235267 -0.9933595
C -0.6178559 -3.0955430 -1.1453789
N -1.6833774 -3.8583717 -1.3070618
N -2.7118096 -3.0001932 -1.2260154
C -2.3477170 -1.7011227 -1.0740191
C -3.3313938 -0.6086546 -1.0574834
C -3.0896688 0.5521750 -1.7941124
C -4.0340000 1.5541849 -1.9041053
Cl -3.7038123 2.9711348 -2.8424369
C -5.2694274 1.4254912 -1.2572133
O -6.1669410 2.4258943 -1.3873135
C -5.5244908 0.2830964 -0.5066264
C -4.5686732 -0.7154154 -0.3950801
O -4.9196220 -1.8053550 0.3451211
H 6.9958091 0.6291916 2.2193167
H 6.1286924 0.9990206 3.7142877
H 7.2939115 2.1811329 3.0538292
H 3.3962548 2.9763132 0.5446517
H 1.4621885 1.6969546 -0.3391281
H 3.0376094 -1.8571529 1.4989413
H 4.9422138 -0.5835955 2.3592715
H 1.0450755 -1.9030242 0.4025321
H 0.3641198 -3.5494703 -1.2010923
H -3.6504748 -3.3491145 -1.3660259
H -2.1309285 0.6739192 -2.2791475
H -6.9725155 2.1899053 -0.9092368
H -6.4736190 0.1538314 0.0106442
H -4.1487354 -2.1604902 0.8068167
