46

O 2.0546400 -2.6404738 -0.1885759
C 2.1393223 -1.4179442 -0.1879156
N 1.3130745 -0.6456263 -0.9616099
C 0.5286582 -1.3637292 -1.9751020
C -0.6358772 -0.4858120 -2.4155920
N -1.3430402 0.0195862 -1.2437265
C -0.5592125 0.7903086 -0.2689001
C 0.9220696 0.7232864 -0.6570444
C -1.0127119 2.2398711 -0.1221529
C -2.7154585 -0.0308119 -1.2693033
O -3.3276998 -0.2162733 -2.3118056
C -3.4611107 0.1536449 0.0270980
C -3.0617000 -0.4524706 1.2205088
C -3.8017611 -0.2674277 2.3837187
C -4.9459141 0.5253899 2.3665444
C -5.3618746 1.1127737 1.1733127
C -4.6320679 0.9126559 0.0071956
C 1.3921529 -1.8093122 -3.1523949
C 3.1525340 -0.7308059 0.6847633
C 3.8956814 0.3745038 0.2673506
C 4.8466300 0.9357852 1.1143632
C 5.0590507 0.3971906 2.3807456
C 4.3326501 -0.7184642 2.7916729
C 3.3957393 -1.2897615 1.9395765
H 0.1282010 -2.2514425 -1.4710472
H -0.2746066 0.3412699 -3.0453497
H -1.3531684 -1.0533459 -3.0084590
H -0.6559805 0.2957765 0.7021928
H 1.1042695 1.3730419 -1.5254291
H 1.5241313 1.0967851 0.1711847
H -0.3349201 2.7599333 0.5631944
H -0.9930768 2.7572073 -1.0879614
H -2.0208170 2.3067891 0.2934513
H -2.1770097 -1.0847599 1.2361081
H -3.4728853 -0.7387647 3.3055744
H -5.5174076 0.6766564 3.2783620
H -6.2625219 1.7210109 1.1476210
H -4.9601456 1.3409147 -0.9366715
H 0.7743368 -2.3245983 -3.8966022
H 2.1656557 -2.5041147 -2.8150478
H 1.8737742 -0.9470900 -3.6293323
H 3.7340155 0.7946974 -0.7231896
H 5.4101781 1.8045495 0.7878541
H 5.7948593 0.8436381 3.0446364
H 4.5025732 -1.1491456 3.7754365
H 2.8367747 -2.1751912 2.2309350
