61

N 8.3454354 -1.7967964 -1.7734432
C 7.1587957 -1.8956433 -2.3760134
C 6.0391327 -1.1409627 -2.0650015
C 6.1215964 -0.1850463 -1.0355234
C 7.3680308 -0.0820498 -0.3873191
C 8.4162773 -0.8920936 -0.7963777
N 5.0609785 0.5986909 -0.6612363
C 5.1347965 1.3543386 0.5776343
C 3.7757409 1.9214239 0.9650688
C 2.6856089 0.8527968 0.8599053
C 2.6253836 0.2578559 -0.5724121
C 3.8255782 0.7209133 -1.4065590
C 1.3449695 1.4502097 1.2887257
O 1.2132668 2.6563830 1.4499764
N 0.2929861 0.5950728 1.4765245
C -1.0155072 1.1679988 1.7910187
C -2.0964552 0.4220826 1.0165670
N -2.0977103 -1.0152523 1.3490017
C -0.8552396 -1.4961849 1.9667555
C 0.3687156 -0.8590652 1.3166862
S -2.6756011 -2.0102867 0.1134707
O -2.7583700 -3.3553903 0.6591147
O -1.9147548 -1.7549620 -1.1048119
C -4.3182063 -1.3887105 -0.1189322
C -4.5720746 -0.5150557 -1.1415205
C -5.8611625 0.0732873 -1.2593825
C -6.8650688 -0.2649065 -0.3162847
C -6.5628499 -1.2007139 0.7134658
C -5.3148623 -1.7589930 0.8124442
C -8.1480003 0.3391131 -0.4246241
C -8.3997210 1.2289109 -1.4317767
C -7.4101824 1.5671549 -2.3867027
C -6.1705028 0.9953321 -2.2924017
Cl -9.9688031 1.9743851 -1.5628745
H 7.0917602 -2.6355232 -3.1738749
H 5.1193788 -1.3261385 -2.6086315
H 7.5305908 0.6230320 0.4198048
H 9.3819594 -0.8056111 -0.2956792
H 5.4934743 0.6904013 1.3784704
H 5.8693604 2.1686794 0.4867424
H 3.8254967 2.3142370 1.9841137
H 3.5109374 2.7685116 0.3247282
H 2.9489823 0.0461379 1.5564904
H 1.7041142 0.5615294 -1.0828786
H 2.6121441 -0.8376146 -0.5179289
H 3.6800810 1.7741413 -1.6818969
H 3.8939111 0.1678409 -2.3413275
H -1.2065189 1.1393977 2.8736799
H -0.9916787 2.2179502 1.4987735
H -3.0855582 0.8316078 1.2466792
H -1.9184491 0.5609271 -0.0604467
H -0.8855592 -1.2423656 3.0323794
H -0.8254520 -2.5846440 1.8893766
H 0.3947153 -1.1434163 0.2547208
H 1.2674080 -1.2548486 1.7995344
H -3.8002771 -0.2662560 -1.8619458
H -7.3411787 -1.4623631 1.4256366
H -5.0736975 -2.4774442 1.5907277
H -8.9224817 0.0918625 0.2961161
H -7.6487493 2.2736492 -3.1755120
H -5.3973071 1.2423863 -3.0173205
