57

C -1.6788669 -0.8953962 -0.9734402
C -2.6108268 -1.2210780 0.2364127
C -2.7392010 -2.7597881 0.2866903
O -1.8262662 -3.5501435 0.4510319
N -4.0449293 -3.0814031 0.1162384
C -4.9218829 -1.9589262 -0.0943951
N -4.0164455 -0.8275414 0.0109349
C -4.5077156 0.4605806 -0.1522953
C -5.8749883 0.6753332 -0.4116214
C -6.3755037 1.9596489 -0.5795023
C -5.5426188 3.0678294 -0.4932638
C -4.1915416 2.8682145 -0.2329020
C -3.6766912 1.5883487 -0.0637512
C -2.0733566 -0.7727741 1.6328661
C -0.8355859 0.1459122 1.6390964
N 0.1406053 -0.1430588 0.6035981
C 0.8315032 -1.4188122 0.7957131
C 2.0679776 -1.5657490 -0.0902327
C 3.0663965 -0.4502764 0.0891801
C 4.2498744 -0.3839980 -0.5334111
C 5.2269930 0.6902504 -0.2001921
C 5.3159916 1.2105215 1.1002849
C 6.2275775 2.2077953 1.4183175
C 7.0492096 2.7028051 0.4166522
C 6.9925176 2.2198268 -0.8804345
C 6.0868693 1.2088705 -1.1752651
F 7.9253462 3.6771475 0.7133574
C 4.6390168 -1.3684645 -1.6097453
C -0.4839548 0.0356414 -0.6956346
H -2.2906902 -0.4730351 -1.7766251
H -1.2737637 -1.8432958 -1.3454750
H -4.3301458 -4.0445103 0.0814679
H -5.7042812 -1.9031364 0.6775546
H -5.3934663 -1.9895928 -1.0890072
H -6.5568547 -0.1643217 -0.4830427
H -7.4368399 2.0890231 -0.7815286
H -5.9402621 4.0692798 -0.6257157
H -3.5198295 3.7191565 -0.1587053
H -2.6186175 1.4736348 0.1403615
H -1.8111861 -1.6762033 2.1962377
H -2.8910144 -0.2862647 2.1741524
H -1.1331110 1.1962701 1.5308714
H -0.3382140 0.0734330 2.6141299
H 0.1692926 -2.2900762 0.6612977
H 1.1733001 -1.4337097 1.8385718
H 2.5339338 -2.5361967 0.1425426
H 1.7706811 -1.6476956 -1.1473542
H 2.7725002 0.3616005 0.7559560
H 4.6772050 0.8094140 1.8837616
H 6.3026314 2.6105394 2.4238438
H 7.6531442 2.6304797 -1.6373711
H 6.0421593 0.8216146 -2.1897194
H 4.0526778 -2.2914810 -1.5534669
H 5.6971665 -1.6331202 -1.5202476
H 4.4924192 -0.9447655 -2.6125089
H 0.2717405 -0.1046434 -1.4746456
H -0.7908836 1.0864759 -0.7675229
