61

N 9.0259718 1.2504067 1.4458561
C 8.3209008 2.0104187 0.6056653
C 7.0930378 1.6654784 0.0630081
C 6.5152782 0.4312394 0.4104839
C 7.2457437 -0.3727095 1.3040253
C 8.4700126 0.0813783 1.7699968
N 5.3073075 0.0334058 -0.0983827
C 4.7626767 0.6339228 -1.3042588
C 3.9193585 -0.3812941 -2.0738433
C 2.7133357 -0.8581554 -1.2489487
C 3.0355460 -0.8090246 0.2633388
C 4.5246319 -1.0091623 0.5441501
C 1.5055469 0.0346206 -1.5301803
O 1.6526854 1.1869975 -1.9153853
N 0.2514057 -0.4602134 -1.3102959
C -0.8535616 0.4806214 -1.5300601
C -2.1785341 -0.2042326 -1.2318792
N -2.1938332 -0.8313308 0.0915130
C -1.0252548 -1.6839350 0.3913865
C -0.0807529 -1.7901900 -0.8097215
S -2.6137688 0.1694041 1.3765634
O -1.8732161 1.4244571 1.3005093
O -2.5283101 -0.6459976 2.5784528
C -4.3125389 0.5265153 1.0089027
C -5.1827490 -0.5023802 0.7686596
C -6.5359925 -0.2147074 0.4429551
C -6.9665984 1.1350796 0.3882965
C -6.0305822 2.1720277 0.6647518
C -4.7286891 1.8775461 0.9692668
C -8.3214101 1.4199286 0.0643706
C -9.1885580 0.3944771 -0.1930244
C -8.7710397 -0.9583773 -0.1480548
C -7.4701823 -1.2452920 0.1643101
Cl -10.8505187 0.7364031 -0.5888485
H 8.7697425 2.9670102 0.3377269
H 6.5844031 2.3583497 -0.5994851
H 6.8802089 -1.3464968 1.6142817
H 9.0408589 -0.5420274 2.4583911
H 5.5934653 0.9621343 -1.9364873
H 4.1560813 1.5202927 -1.0698358
H 4.5498667 -1.2393067 -2.3361817
H 3.5802234 0.0680245 -3.0111192
H 2.4804308 -1.8845531 -1.5502030
H 2.4621453 -1.5638948 0.8101609
H 2.7352730 0.1664684 0.6635291
H 4.6980490 -0.9612161 1.6243754
H 4.8480301 -2.0075343 0.2076713
H -0.8271271 0.8444816 -2.5623724
H -0.7302858 1.3429464 -0.8670081
H -3.0086771 0.5035508 -1.3025499
H -2.3739167 -0.9930499 -1.9685287
H -0.4857231 -1.2604334 1.2473522
H -1.3806612 -2.6754822 0.6866180
H 0.8241015 -2.3063439 -0.4917118
H -0.5395130 -2.4016111 -1.5996681
H -4.8502814 -1.5353146 0.8174906
H -6.3643435 3.2054697 0.6268816
H -4.0007914 2.6539447 1.1835996
H -8.6614841 2.4511556 0.0224773
H -9.4875451 -1.7454597 -0.3604444
H -7.1297774 -2.2782306 0.2048605
