34

C -1.3194152 -0.9807840 -0.5660139
N -0.0452987 -0.5246590 -0.0027333
C 1.0637237 -0.5505740 -0.9545866
C 2.3143164 0.1129594 -0.4237038
C 2.6001563 0.1702939 0.9403144
C 3.7741735 0.7640410 1.3939401
C 4.6802591 1.3093964 0.4891906
C 4.4057120 1.2528190 -0.8744406
C 3.2294673 0.6608972 -1.3230294
C -2.1705766 -1.6232948 0.5740779
O -1.3720674 -2.0734192 1.6442231
C -3.1592335 -0.5137966 1.0518311
O -2.9733181 -0.2004686 2.4132818
C -2.8541439 0.7355077 0.1800769
O -1.9107338 1.5482930 0.8505582
C -2.1802910 0.1916109 -1.0894982
S -3.3673733 -0.4454581 -2.3142370
H -1.1130403 -1.7192542 -1.3464650
H -0.1790254 0.4193729 0.3610758
H 0.7959673 -0.0806736 -1.9174676
H 1.2703903 -1.6057061 -1.1773896
H 1.8954581 -0.2513999 1.6529667
H 3.9768877 0.8088497 2.4616806
H 5.5967359 1.7734904 0.8448467
H 5.1081742 1.6736866 -1.5909415
H 3.0203515 0.6200066 -2.3905954
H -2.7347322 -2.4805540 0.1920276
H -0.4882752 -1.6964131 1.4455626
H -4.1943943 -0.8384365 0.8910871
H -2.3417904 -0.8703350 2.7396068
H -3.7680036 1.3099999 -0.0348899
H -2.0849254 1.3947793 1.7972803
H -1.5603309 0.9674647 -1.5443911
H -3.9149056 0.7417577 -2.6175486
