36

C 3.9272350 0.3881613 0.8359708
C 4.2416011 1.7245080 0.2324051
C 3.3093922 0.7869662 -0.4761294
N 1.9101130 1.1629000 -0.4961429
C 0.9905193 0.1112128 -0.9349453
C 0.7342020 -0.8582663 0.2317153
C -0.5347601 -1.7403754 0.0699914
N -0.3270696 -2.8977294 0.9526560
C -1.8721280 -1.0572837 0.3776592
C -2.2636163 0.1652337 -0.4488344
C -3.7336486 0.5398701 -0.2607046
C -4.1350451 1.7783938 -1.0574060
O 0.5849967 -0.1251210 1.4296409
O 1.8539829 -1.7082907 0.2659730
H 4.7018981 -0.3715263 0.8093237
H 3.2670307 0.3400827 1.6980297
H 3.7977056 2.6049721 0.6883219
H 5.2298447 1.8819004 -0.1907424
H 3.6877990 0.2728079 -1.3627128
H 1.8050525 1.9720902 -1.1005580
H 1.3857982 -0.4608584 -1.7822606
H 0.0654757 0.5943234 -1.2570598
H -0.5392147 -2.1130165 -0.9631665
H -0.5560184 -2.6249211 1.9068630
H -0.9515426 -3.6577391 0.7008450
H -1.8941360 -0.7915428 1.4415082
H -2.6462226 -1.8276803 0.2414851
H -2.0789368 -0.0225169 -1.5178837
H -1.6427568 1.0253689 -0.1614997
H -4.3640841 -0.3088309 -0.5590294
H -3.9259222 0.7094040 0.8073725
H -3.9849198 1.6201784 -2.1318476
H -5.1883907 2.0337731 -0.9008624
H -3.5329617 2.6460829 -0.7634413
H 1.1219428 0.6758912 1.2823998
H 1.5569850 -2.4686234 0.8000640
