39

N -3.5574208 -1.0641176 -1.5231893
C -2.3653432 -1.3401746 -2.0631458
N -1.1535411 -1.0590817 -1.5480746
C -1.0942316 -0.4399900 -0.3613796
C -2.2878024 -0.1127976 0.3003364
C -3.4476337 -0.4544684 -0.3547027
O -4.4853854 -0.0454707 0.4270584
C -3.8781951 0.5257077 1.5234529
N -2.5883233 0.5190716 1.5073396
C -4.7886344 1.0681169 2.5636803
N 0.1001537 -0.1622114 0.2140874
C 1.3573517 -0.2624750 -0.4974155
C 1.5231945 0.8607513 -1.5400343
C 1.2615792 2.2650533 -1.0426439
O 0.8820358 2.6019088 0.0578344
O 1.4900403 3.1663024 -2.0144820
C 2.5144480 -0.3842937 0.4808602
C 2.6780511 0.5112271 1.5397316
C 3.7628589 0.3860554 2.4033616
C 4.6950144 -0.6327964 2.2262971
C 4.5383202 -1.5295323 1.1751691
C 3.4535254 -1.4032972 0.3115341
C -2.3763210 -2.0421525 -3.3921478
H -5.4064637 1.8717488 2.1505540
H -5.4580037 0.2849293 2.9318058
H -4.2041308 1.4598240 3.3970122
H 0.0701692 0.4849012 0.9911533
H 1.3036063 -1.1943025 -1.0678965
H 2.5203668 0.8246783 -1.9913152
H 0.8047372 0.6748168 -2.3491998
H 1.2874070 4.0363030 -1.6323178
H 1.9741172 1.3272893 1.6802183
H 3.8733841 1.0864842 3.2278129
H 5.5401013 -0.7246376 2.9045484
H 5.2563667 -2.3331226 1.0300143
H 3.3296029 -2.1160489 -0.5025181
H -1.7999706 -1.4715091 -4.1265316
H -1.9193078 -3.0325095 -3.3009032
H -3.4061359 -2.1503809 -3.7361823
