50

O 6.2998460 1.8836221 -0.2669856
C 6.1786306 0.8000393 -1.0658219
O 7.1182775 0.3519782 -1.6777821
C 4.7852229 0.2114557 -1.0567868
C 4.5418103 -0.5466626 0.2596355
C 3.1624850 -1.2029262 0.2448241
C 2.0213488 -0.1815084 0.0146522
C 2.3081460 0.5849136 -1.3066545
C 3.6850104 1.2486586 -1.3155047
C 2.0325649 0.7910876 1.1395307
N 2.0178884 1.5437379 2.0191225
C 0.6190127 -0.8187359 -0.0189685
C 0.4110141 -2.1908253 -0.0610719
C -0.8770592 -2.7273404 -0.1214101
C -1.9852841 -1.8917791 -0.1390184
O -3.2795742 -2.3039980 -0.1812507
C -3.5237105 -3.6936217 -0.2211874
C -1.7887387 -0.4966253 -0.1005284
C -0.5027152 0.0186069 -0.0388890
O -2.8666297 0.3389204 -0.1771471
C -3.6352976 0.4907362 1.0244918
C -3.1832807 1.7624409 1.7318961
C -3.8036535 2.9014776 0.8896550
C -4.9542686 2.2515229 0.0758916
C -5.0538364 0.8012666 0.5784723
H 7.2336295 2.1456732 -0.3202943
H 4.7773894 -0.5205706 -1.8717325
H 4.6271575 0.1418353 1.1082183
H 5.3146809 -1.3137989 0.3905075
H 3.1326086 -1.9331730 -0.5751251
H 2.9893854 -1.7514000 1.1766889
H 2.2397822 -0.1408278 -2.1261126
H 1.5204886 1.3266118 -1.4797994
H 3.7318727 2.0353226 -0.5553178
H 3.8512184 1.7348506 -2.2837975
H 1.2510071 -2.8802564 -0.0424666
H -1.0006230 -3.8045630 -0.1462482
H -3.0793877 -4.1548395 -1.1135264
H -3.1360538 -4.1946227 0.6760726
H -4.6079743 -3.8061280 -0.2582736
H -0.3829712 1.0985191 0.0036296
H -3.5565809 -0.4091082 1.6441681
H -2.0914341 1.8164552 1.8079225
H -3.5848094 1.7696498 2.7522688
H -4.1625943 3.7115076 1.5324169
H -3.0619989 3.3367279 0.2149458
H -5.9016092 2.7871301 0.1952290
H -4.7100396 2.2641815 -0.9890094
H -5.7336640 0.7264374 1.4376201
H -5.3865891 0.0878443 -0.1813494
