24

C -0.4801649 -1.1441356 -0.4158055
C -1.1487890 -1.9812571 0.6675700
O -2.2296480 -1.7430363 1.1542080
O -0.4235393 -3.0585727 1.0053197
C 1.0283515 -0.9739984 -0.1876103
C 1.3727404 -0.1603875 1.0668797
C 2.6847084 0.6025760 0.9351097
O 3.6142603 0.4683712 1.6885582
O 2.7430201 1.4635645 -0.0943461
N -1.2330127 0.0946191 -0.4867681
C -0.8541756 1.2629114 -1.0600269
O 0.2799622 1.4780558 -1.4870170
C -1.9285031 2.3269622 -1.1018136
H -0.6043291 -1.7136318 -1.3514957
H -0.9444349 -3.5361039 1.6727118
H 1.4807919 -1.9679295 -0.1233416
H 1.4348528 -0.4977598 -1.0812530
H 1.4511368 -0.8051709 1.9455922
H 0.5807849 0.5732156 1.2681785
H 1.9008931 1.4801940 -0.5931427
H -2.1677446 0.0218430 -0.1047686
H -2.9153253 1.9118224 -1.3315694
H -1.9863686 2.8305854 -0.1303356
H -1.6555615 3.0673670 -1.8547319
