40

O 5.0568702 3.0494055 2.6603201
C 5.2852079 2.1992036 1.8211159
C 6.6806610 2.0082620 1.2656514
C 4.1870803 1.3192914 1.3167532
C 4.3832775 0.3566591 0.3255081
C 3.3299921 -0.4345285 -0.1047772
C 2.0537123 -0.2773873 0.4473737
C 1.8446158 0.6856342 1.4397487
C 2.9083143 1.4679227 1.8592102
N 1.0279352 -1.1186067 -0.0204171
C -0.3220735 -1.0327294 0.2229599
O -0.8227490 -0.1984012 0.9606022
C -1.1269470 -2.0477903 -0.5042403
C -0.7316205 -3.3451651 -0.9166575
N -1.7398715 -4.0343561 -1.4209734
N -2.7839045 -3.1984772 -1.3421871
C -2.4848719 -1.9773925 -0.8345410
C -3.4812640 -0.9113374 -0.7288800
C -4.7973671 -1.1648416 -0.3217477
C -5.7147279 -0.1422325 -0.1846044
Cl -7.3321209 -0.4692093 0.3448186
C -5.3397926 1.1785605 -0.4710529
O -6.2634800 2.1522662 -0.3165044
C -4.0448571 1.4390983 -0.9068605
C -3.1289551 0.4012306 -1.0499035
O -1.8907547 0.6122332 -1.5787870
H 7.0323796 0.9846242 1.4348722
H 7.3520425 2.7125074 1.7592649
H 6.6941108 2.1860055 0.1845963
H 5.3647408 0.2182205 -0.1203022
H 3.5031262 -1.1763255 -0.8805283
H 0.8582168 0.8129788 1.8655779
H 2.7559300 2.2215693 2.6264604
H 1.3111447 -1.8004968 -0.7082240
H 0.2324412 -3.8316714 -0.8268550
H -3.6678529 -3.4861184 -1.7388337
H -5.1055556 -2.1796965 -0.0810109
H -5.8577203 3.0027300 -0.5302715
H -3.7496579 2.4592827 -1.1547197
H -1.4757579 1.3591782 -1.1260518
