44

Cl -4.2613239 -5.8750704 -1.6313055
C -3.7299117 -4.2518729 -1.3441020
C -4.4063065 -3.1834420 -1.9161988
N -4.0509389 -1.9178262 -1.7333825
C -2.9957408 -1.6597205 -0.9678842
N -2.6487918 -0.3099946 -0.7753572
C -3.1068643 0.7800271 -1.5636498
O -3.6085554 0.7220126 -2.6546375
C -2.7928094 1.9854496 -0.7604427
N -3.0973571 3.2526358 -1.0420809
C -2.6846965 4.1112237 -0.1188943
C -1.9954687 3.7213785 1.0396698
N -1.6881997 2.4473919 1.2975688
C -2.1020169 1.6059723 0.3700849
C -1.8533375 0.1285285 0.3648221
O -0.4787577 -0.1543046 0.0704379
C 0.3795875 -0.1391282 1.1324301
O 0.0276911 -0.2559037 2.2869742
N 1.6656262 -0.0073609 0.7223801
C 2.7114206 -0.0115515 1.7384370
C 3.9978597 -0.5526700 1.1181693
N 4.4457228 0.2199921 -0.0400916
C 3.3681160 0.9107316 -0.7414963
C 2.0542289 0.1459051 -0.6769455
C 5.5322874 1.1335028 0.2529466
C -2.2484492 -2.6732313 -0.3468822
C -2.6263465 -3.9908556 -0.5433355
H -5.2711158 -3.3646534 -2.5499686
H -2.9053019 5.1616916 -0.2974657
H -1.6828687 4.4622965 1.7695396
H -2.1358031 -0.3666573 1.3008543
H 2.8644184 1.0007056 2.1434823
H 2.3749385 -0.6433267 2.5629270
H 3.8224356 -1.5977111 0.8234016
H 4.8049732 -0.5706705 1.8600368
H 3.6663936 1.0483146 -1.7889054
H 3.1881793 1.9205418 -0.3246596
H 2.1466623 -0.8340898 -1.1659051
H 1.2813885 0.7101310 -1.2030748
H 5.2592797 1.9336646 0.9678473
H 6.3858744 0.5837696 0.6625515
H 5.8583173 1.6122192 -0.6762567
H -1.3883711 -2.4347382 0.2645329
H -2.0759692 -4.8030085 -0.0788709
