39

N -2.1574847 2.1842522 0.5671196
C -0.9194464 2.0766525 0.0853812
N -0.2753782 0.9398637 -0.2457262
C -0.9090259 -0.2354824 -0.0984637
C -2.2240159 -0.2283681 0.3902078
C -2.7533638 1.0033462 0.6928115
O -4.0192660 0.7947013 1.1465114
C -4.1801058 -0.5739974 1.0847304
N -3.1587794 -1.2300592 0.6480528
C -5.4991437 -1.0971672 1.5268827
N -0.3156466 -1.4037399 -0.4167497
C 1.0877886 -1.6616976 -0.7416142
C 1.3208972 -1.7112106 -2.2556269
C 0.9323531 -0.5500462 -3.1724251
O 0.7948063 -0.7628709 -4.3524828
O 0.8514087 0.6918344 -2.6953953
C 2.0904630 -0.8338615 0.0621481
C 2.0443552 -0.9432633 1.4541200
C 2.9461994 -0.2593698 2.2619307
C 3.9173411 0.5534931 1.6847493
C 3.9721561 0.6762990 0.3005495
C 3.0596116 -0.0059606 -0.5044612
C -0.1357297 3.3423590 -0.1179519
H -5.6831728 -0.8350576 2.5734054
H -5.5208076 -2.1829906 1.4228866
H -6.3042540 -0.6644621 0.9251348
H -0.9192398 -2.2088391 -0.3008838
H 1.2336912 -2.6971584 -0.4105942
H 2.3862324 -1.9074081 -2.4378692
H 0.7915338 -2.5757682 -2.6646725
H 0.7091734 0.7587969 -1.7184249
H 1.2809815 -1.5745187 1.9039676
H 2.8926783 -0.3649848 3.3427898
H 4.6260414 1.0893838 2.3110933
H 4.7257679 1.3076509 -0.1642726
H 3.1117809 0.1343301 -1.5825729
H -0.7951128 4.2082028 -0.0339755
H 0.3402183 3.3290369 -1.1046286
H 0.6543952 3.4180776 0.6342145
