46

O 2.6954636 1.9345788 -1.3426118
C 2.6350562 1.0141765 -0.5408877
N 1.4232914 0.5702381 -0.0482951
C 1.1543804 -0.8580125 0.1943602
C -0.0317615 -0.9621837 1.1632562
N -1.2106148 -0.2350705 0.6944387
C -0.8965975 1.1937094 0.5141093
C 0.2640560 1.3506230 -0.4743490
C -2.0428464 2.1033228 0.1093256
C -2.2047052 -1.0034738 0.1141919
O -1.9678422 -2.1379581 -0.2797145
C -3.6041667 -0.4680929 -0.0206062
C -4.2982701 0.0930953 1.0532843
C -5.6069010 0.5378501 0.8813922
C -6.2330862 0.4099810 -0.3554844
C -5.5530401 -0.1810092 -1.4190176
C -4.2513583 -0.6357952 -1.2457787
C 0.9379448 -1.6506621 -1.0981001
C 3.8860191 0.3199057 -0.0796022
C 4.1276190 0.0102546 1.2595619
C 5.3209800 -0.6028106 1.6304789
C 6.2750751 -0.9152770 0.6658083
C 6.0438795 -0.5917745 -0.6691429
C 4.8624310 0.0399629 -1.0368553
H 2.0309003 -1.2734268 0.7023039
H 0.2653039 -0.5235241 2.1245109
H -0.3073698 -2.0069319 1.3191011
H -0.5131325 1.5127785 1.4927594
H 0.5760972 2.3958187 -0.5243535
H -0.0556795 1.0640805 -1.4898473
H -2.8047913 2.1822429 0.8877150
H -2.5202848 1.7624367 -0.8132850
H -1.6444880 3.1076976 -0.0653004
H -3.8047799 0.1904387 2.0169138
H -6.1365491 0.9834425 1.7184186
H -7.2523366 0.7635011 -0.4887879
H -6.0400512 -0.2949368 -2.3840771
H -3.7183400 -1.1299036 -2.0541852
H 1.8401646 -1.6342244 -1.7174970
H 0.1047247 -1.2486945 -1.6829670
H 0.7022876 -2.6925313 -0.8587216
H 3.3833882 0.2587441 2.0126426
H 5.4981905 -0.8479240 2.6735574
H 7.2014213 -1.4044446 0.9562055
H 6.7899819 -0.8254703 -1.4247183
H 4.6804370 0.3249547 -2.0701466
