45

O -4.8787944 -1.3994014 1.0149522
N -5.2318829 -0.7707468 -0.1474962
C -4.1236690 -0.3741719 -0.7216814
C -2.9875726 -0.7234908 0.1036082
C -1.5321587 -0.5007800 -0.0701973
O -0.9600302 -0.5197075 -1.1493300
N -0.8460420 -0.2831700 1.0964380
C 0.5376517 -0.0479499 1.2014182
C 1.2011034 0.2309240 2.3800711
N 2.5375172 0.3721808 2.1181806
C 3.5302173 0.6757907 3.1310486
C 2.7334537 0.1825196 0.7618204
C 1.5039409 -0.0753908 0.1795207
C 4.0117866 0.2264385 0.0329270
O 4.0758587 0.0654038 -1.1672619
O 5.0877407 0.4594795 0.8111074
C 6.3555951 0.5095715 0.1222161
C 6.8811489 -0.8771872 -0.1992903
C -3.5544706 -1.3729006 1.1714708
C -3.0393879 -2.0517591 2.3978747
C -4.2462522 0.3441077 -2.0113085
C -5.4960996 0.8617377 -2.3625762
C -5.6706206 1.5343341 -3.5645343
C -4.5990880 1.6883048 -4.4373822
C -3.3565316 1.1622589 -4.0999536
C -3.1769774 0.4910052 -2.8956852
H -1.3703770 -0.1869796 1.9508056
H 0.8333396 0.3390929 3.3926167
H 3.0117886 0.7704689 4.0879336
H 4.2723035 -0.1215652 3.2027075
H 4.0413623 1.6132360 2.9053268
H 1.3191803 -0.2644776 -0.8677320
H 6.2439481 1.1086933 -0.7863307
H 7.0162131 1.0328697 0.8168250
H 6.9506653 -1.4861156 0.7073802
H 7.8796791 -0.7946991 -0.6426671
H 6.2242965 -1.3784063 -0.9144887
H -2.1030869 -2.5759489 2.1935826
H -3.7846943 -2.7655682 2.7556640
H -2.8509167 -1.3327413 3.2044141
H -6.3341718 0.7296764 -1.6849506
H -6.6481030 1.9362366 -3.8206634
H -4.7331601 2.2138064 -5.3792738
H -2.5147646 1.2766257 -4.7776157
H -2.2099331 0.0778944 -2.6403913
