35

N -3.6443643 0.6403561 1.2010769
C -4.0274091 -0.6391988 1.3362764
N -3.6335451 -1.6768002 0.5910327
C -2.7607416 -1.4146181 -0.3782675
C -2.2475091 -0.1222340 -0.6095249
C -2.7584315 0.8533774 0.2294945
C -1.1452572 0.1719041 -1.5999298
C 0.2462310 0.1070556 -0.9911178
C 0.9891393 1.2784157 -0.8011144
C 2.2543882 1.2485113 -0.2324956
C 2.8124602 0.0071781 0.1564396
C 2.0714842 -1.1508070 -0.0301400
C 0.7960240 -1.1028127 -0.5974541
O 4.0571317 0.0563512 0.6925669
C 4.6514245 -1.1667136 1.0680679
O 3.0261175 2.3427017 -0.0135299
C 2.4890352 3.5913216 -0.3871491
N -2.3400466 -2.5021220 -1.1177851
N -4.8935909 -0.9215445 2.3507101
H -2.4363320 1.8907365 0.1129309
H -1.3080885 1.1743982 -2.0117908
H -1.2009784 -0.5102078 -2.4593714
H 0.5652633 2.2262074 -1.1153080
H 2.4775299 -2.1121336 0.2650705
H 0.2426488 -2.0284746 -0.7323895
H 4.0697095 -1.6752467 1.8488005
H 4.7662831 -1.8385728 0.2067335
H 5.6365893 -0.9134948 1.4618058
H 2.2972848 3.6371793 -1.4670356
H 3.2402374 4.3364856 -0.1212952
H 1.5583009 3.8045060 0.1543356
H -2.1645400 -2.3306155 -2.0990734
H -2.9260588 -3.3125547 -0.9583553
H -5.3879492 -0.1407511 2.7526898
H -5.3723577 -1.8076847 2.2965479
