39

N -3.7339731 -0.8137697 -1.4732104
C -2.5578286 -0.8535718 -2.1086969
N -1.3479023 -0.5425107 -1.6062992
C -1.2693870 -0.1526348 -0.3294574
C -2.4440273 -0.0881316 0.4361767
C -3.6065841 -0.4240109 -0.2154823
O -4.6230998 -0.2842818 0.6798813
C -4.0004773 0.1307113 1.8367523
N -2.7194607 0.2624542 1.7580511
C -4.8905833 0.3709537 3.0020298
N -0.0836160 0.1942849 0.2292592
C 1.2102159 -0.0253478 -0.4081737
C 1.4659899 1.0510188 -1.4746568
C 2.6203742 0.7116543 -2.3830056
O 3.0723461 -0.3943417 -2.5756415
O 3.0936721 1.8006250 -3.0181309
C 2.3011739 -0.0550928 0.6503790
C 2.4151218 0.9863796 1.5727064
C 3.4294561 0.9838516 2.5252116
C 4.3434667 -0.0665014 2.5684586
C 4.2433015 -1.1048404 1.6475758
C 3.2294043 -1.0957756 0.6930775
C -2.5797919 -1.2996510 -3.5430356
H -4.2945610 0.6709881 3.8648207
H -5.4519835 -0.5353796 3.2491044
H -5.6134630 1.1613233 2.7754313
H -0.1132374 0.3029395 1.2368110
H 1.1950237 -0.9890991 -0.9304486
H 1.6179932 2.0327988 -1.0159919
H 0.5704286 1.1175920 -2.1036436
H 3.8086097 1.4851167 -3.5955286
H 1.7059055 1.8139825 1.5481617
H 3.4960090 1.7963041 3.2448079
H 5.1321684 -0.0733337 3.3166051
H 4.9544609 -1.9270813 1.6721208
H 3.1637421 -1.9036646 -0.0344523
H -2.1022668 -2.2805858 -3.6382194
H -3.6127886 -1.3708266 -3.8878044
H -2.0235375 -0.5927483 -4.1653431
