39

N -2.3876073 0.9046051 -1.9642253
C -1.1359095 0.4387330 -2.0574729
N -0.3341908 0.0413936 -1.0515646
C -0.7903202 0.1345511 0.2043662
C -2.0915756 0.6206458 0.4197284
C -2.8007553 0.9682911 -0.7088348
O -4.0288554 1.3909849 -0.2954845
C -3.9868485 1.2661703 1.0762281
N -2.8774354 0.8158905 1.5562824
C -5.2218162 1.6573680 1.8034422
N -0.0141356 -0.2049938 1.2607253
C 1.2593845 -0.9070029 1.1406644
C 1.0623903 -2.3037589 0.5414379
C 0.1490582 -3.1526021 1.4145787
O -0.2915960 -2.8084504 2.4816406
O -0.1484992 -4.3789046 0.9332196
C 2.3134368 -0.0514369 0.4476448
C 3.0759423 -0.4845861 -0.6354909
C 4.0632268 0.3311377 -1.1857979
C 4.2901348 1.5998103 -0.6655848
C 3.5174159 2.0526106 0.4004761
C 2.5341972 1.2336548 0.9451540
C -0.5512690 0.3242063 -3.4381354
H -6.0643006 1.0351560 1.4855622
H -5.4765958 2.7007600 1.5945000
H -5.0723325 1.5338305 2.8766852
H -0.5277592 -0.3913655 2.1135160
H 1.5809444 -1.0394102 2.1775729
H 2.0285300 -2.8200167 0.4569712
H 0.6351753 -2.2164191 -0.4658838
H 0.2739272 -4.5150770 0.0735341
H 2.9021099 -1.4674587 -1.0682273
H 4.6562461 -0.0341797 -2.0209000
H 5.0628961 2.2358640 -1.0903306
H 3.6835973 3.0444825 0.8138819
H 1.9261381 1.5924433 1.7731221
H 0.5161542 0.5558731 -3.4049956
H -1.0663505 0.9972571 -4.1271872
H -0.6626460 -0.7002568 -3.8108262
