34

C -1.2155616 -0.5468550 -0.3751447
N 0.0997617 0.0671076 -0.2355671
C 1.1765919 -0.8983652 0.0095003
C 2.5330881 -0.2296718 0.0445223
C 3.6694489 -0.9531140 -0.3158352
C 4.9318831 -0.3712912 -0.2556612
C 5.0728754 0.9470984 0.1674275
C 3.9438559 1.6752443 0.5305407
C 2.6832444 1.0913022 0.4676900
C -1.7975958 -0.9525662 1.0136599
O -1.2189202 -0.1734323 2.0428416
C -3.3293593 -0.6612395 0.9370977
O -3.6786706 0.4281435 1.7636762
C -3.5891408 -0.2375613 -0.5254835
O -4.6946459 0.6066112 -0.6603999
C -2.2668921 0.4145802 -0.9309595
S -2.1052295 0.6878699 -2.7144682
H -1.1818978 -1.4429636 -1.0152969
H 0.3158330 0.5640194 -1.0980994
H 0.9798696 -1.3866824 0.9756006
H 1.1825322 -1.7019434 -0.7463186
H 3.5673900 -1.9849400 -0.6485713
H 5.8089533 -0.9480076 -0.5412617
H 6.0574706 1.4053881 0.2158414
H 4.0428459 2.7066372 0.8610967
H 1.8009834 1.6653246 0.7399971
H -1.6109761 -2.0126124 1.2256143
H -0.5084138 0.3307497 1.5967032
H -3.9308991 -1.5334350 1.2175412
H -2.8614185 0.6515214 2.2444360
H -3.7612836 -1.1228234 -1.1523568
H -4.7145905 1.1334701 0.1554816
H -2.1695924 1.3737606 -0.4101728
H -3.2315401 1.4088753 -2.8280717
