24

C -0.3425288 -0.9791007 -0.2740433
C -1.4326409 -1.7363468 0.4877986
O -2.5971898 -1.7604295 0.1794834
O -0.9357387 -2.4520286 1.5133612
C 0.8119371 -0.5093509 0.6204647
C 1.9125582 0.1664338 -0.1974653
C 3.1262930 0.5559194 0.6135705
O 3.7372445 1.5913031 0.5145112
O 3.4971481 -0.4170007 1.4748791
N -0.9369477 0.0895097 -1.0531324
C -1.6667637 1.0598303 -0.4198721
O -1.6835777 1.1618216 0.7960167
C -2.4474962 1.9879498 -1.3256704
H 0.0533524 -1.7050466 -0.9977385
H -1.6999037 -2.8980195 1.9148830
H 0.4191837 0.1832505 1.3686301
H 1.2183484 -1.3739315 1.1473878
H 2.2669658 -0.5158716 -0.9832521
H 1.5524857 1.0692204 -0.6948501
H 4.2844317 -0.0788183 1.9324309
H -1.1647584 -0.1079238 -2.0155823
H -3.4934697 1.6627245 -1.3567379
H -2.0554867 2.0130409 -2.3467681
H -2.4233538 2.9929675 -0.8984135
