57

C -2.0321714 -0.0979555 -1.8646870
C -2.4814662 -1.1771981 -0.8500201
C -2.4260031 -2.5515359 -1.5476309
O -1.4391795 -3.1020302 -1.9975748
N -3.6933661 -3.0449413 -1.5834215
C -4.6457087 -2.2776340 -0.8219426
N -3.9095918 -1.0632897 -0.5153149
C -4.5171483 -0.0691159 0.2458644
C -5.8605641 -0.2158790 0.6438898
C -6.5082144 0.7671760 1.3812346
C -5.8497735 1.9339720 1.7474938
C -4.5243383 2.0949615 1.3628466
C -3.8632052 1.1137351 0.6338934
C -1.5612068 -1.2187548 0.3974801
C -0.0745663 -1.1680032 0.0147020
N 0.2770066 -0.0643658 -0.8709585
C 0.3361353 1.2528118 -0.2520743
C 1.4631438 1.3621565 0.7744760
C 2.7904671 0.8799310 0.2462660
C 3.9358660 0.8907392 0.9382600
C 5.2243409 0.5141731 0.2913354
C 5.4529330 0.7555012 -1.0726656
C 6.6595151 0.4225467 -1.6732550
C 7.6441363 -0.1778804 -0.9026968
C 7.4575172 -0.4411932 0.4443968
C 6.2509664 -0.0833664 1.0319754
F 8.8111279 -0.5114554 -1.4790894
C 3.9731419 1.2567222 2.4021309
C -0.5128317 -0.1236810 -2.0932008
H -2.3327160 0.8901981 -1.5052431
H -2.5613919 -0.2572077 -2.8105133
H -3.8403946 -4.0061279 -1.8398254
H -5.5396371 -2.0481455 -1.4172881
H -4.9461999 -2.7939888 0.1047507
H -6.4140582 -1.1079998 0.3760852
H -7.5461488 0.6121617 1.6688972
H -6.3593721 2.7019821 2.3207210
H -3.9871037 2.9992404 1.6336928
H -2.8232407 1.2841360 0.3804683
H -1.7770268 -2.1278282 0.9682808
H -1.7911702 -0.3747433 1.0541674
H 0.1960587 -2.0966912 -0.4980028
H 0.5393636 -1.1070188 0.9175133
H -0.6191264 1.5653475 0.2130025
H 0.5395824 1.9697212 -1.0561032
H 1.5320580 2.4131864 1.0928416
H 1.1907950 0.8138942 1.6897109
H 2.7798482 0.4599819 -0.7596426
H 4.6814097 1.2348809 -1.6709496
H 6.8418346 0.6117661 -2.7269715
H 8.2511565 -0.9121773 1.0157752
H 6.1018561 -0.2860666 2.0890847
H 3.0802569 1.8111482 2.7088454
H 4.8493090 1.8754728 2.6201049
H 4.0412393 0.3616694 3.0346412
H -0.2158011 0.7083462 -2.7421306
H -0.2490596 -1.0509888 -2.6111380
