50

O 6.1963450 1.6515589 -1.1058974
C 5.0986572 2.2560064 -0.5977737
O 5.1806457 3.3796506 -0.1753088
C 3.7908149 1.4675941 -0.5323952
C 3.6447666 0.2981058 -1.5109810
C 2.2654832 -0.3465872 -1.3681000
C 2.0055183 -0.8377425 0.0822913
C 2.1868682 0.3479524 1.0687309
C 3.5524691 1.0168767 0.9193829
C 3.0510170 -1.8409812 0.4030329
N 3.8884926 -2.6020400 0.6467960
C 0.6051125 -1.4594396 0.2139312
C 0.4098977 -2.7780844 0.5970676
C -0.8788811 -3.3037338 0.7062273
C -1.9894079 -2.5204968 0.4405614
O -3.2734805 -2.9414747 0.5155986
C -3.4947305 -4.2838751 0.8846659
C -1.8046012 -1.1707702 0.0592702
C -0.5166318 -0.6692767 -0.0611744
O -2.9490566 -0.4836318 -0.1966121
C -2.8772271 0.9226599 -0.3926136
C -2.5540832 1.7243363 0.8687510
C -3.0512468 3.1331439 0.5205538
C -4.3128066 2.9126214 -0.3531855
C -4.2662906 1.4272646 -0.7826147
H 5.9937960 0.7487955 -1.3845766
H 3.0176161 2.2078916 -0.7759072
H 3.7808989 0.6442567 -2.5429245
H 4.4125029 -0.4655095 -1.3207060
H 1.4919507 0.3852915 -1.6307548
H 2.1534985 -1.1884753 -2.0585131
H 2.0346886 -0.0063465 2.0929333
H 1.4002709 1.0852639 0.8670695
H 4.3486754 0.3248568 1.2224025
H 3.6166592 1.8897708 1.5776762
H 1.2589604 -3.4204750 0.8156017
H -0.9927051 -4.3401056 1.0014126
H -3.1047343 -4.4915558 1.8898250
H -4.5768795 -4.4210590 0.8786275
H -3.0339075 -4.9765653 0.1681292
H -0.3704798 0.3608882 -0.3777816
H -2.1552793 1.1505241 -1.1913000
H -1.4968785 1.6971828 1.1548036
H -3.1329556 1.3006195 1.6990646
H -3.2539906 3.7360746 1.4108156
H -2.2844703 3.6639612 -0.0568517
H -4.3129239 3.5890198 -1.2143629
H -5.2282913 3.1147731 0.2125000
H -4.9960437 0.8382875 -0.2159873
H -4.4778216 1.2731969 -1.8455002
