61

N 9.3225150 0.2851350 -0.5951499
C 8.5726018 -0.1837893 -1.5946686
C 7.1918847 -0.2919695 -1.5686143
C 6.4939532 0.1115055 -0.4159457
C 7.2803260 0.5737656 0.6545892
C 8.6565665 0.6492942 0.5004189
N 5.1231631 0.0243592 -0.3332468
C 4.4877870 0.2686004 0.9541086
C 2.9751515 0.0372815 0.8775427
C 2.6773934 -1.1258951 -0.0788792
C 3.1420144 -0.8197972 -1.5138102
C 4.2677529 0.2178097 -1.4938499
C 1.2492411 -1.6479950 0.0326008
O 1.0397288 -2.6851089 0.6471866
N 0.2069960 -0.9575983 -0.5540827
C -1.1341188 -1.5077240 -0.3745230
C -1.8690345 -0.7754595 0.7479511
N -1.9034291 0.6616130 0.4299383
C -0.5544224 1.2343135 0.2674139
C 0.1714734 0.4727782 -0.8440180
S -2.8922833 1.5855737 1.4357352
O -2.5715812 1.2927357 2.8256216
O -2.8325852 2.9506973 0.9357785
C -4.4940729 0.9181760 1.0887552
C -4.9746038 0.9793474 -0.1906414
C -6.2585248 0.4417574 -0.4827757
C -7.0201346 -0.1393626 0.5632046
C -6.4817390 -0.1718706 1.8810951
C -5.2423711 0.3469788 2.1443092
C -8.3053547 -0.6739113 0.2750365
C -8.7930253 -0.6252190 -1.0012108
C -8.0444587 -0.0500540 -2.0568571
C -6.8056372 0.4688986 -1.7923526
Cl -10.3678962 -1.2795522 -1.3579393
H 9.1122952 -0.4899145 -2.4905393
H 6.6757492 -0.7201904 -2.4212154
H 6.8358495 0.8824088 1.5929523
H 9.2630383 1.0314551 1.3225978
H 4.6870184 1.2945138 1.3027731
H 4.9349830 -0.4158773 1.6868761
H 2.4936733 0.9647636 0.5464204
H 2.5914136 -0.1783835 1.8815481
H 3.2627614 -1.9743653 0.2852038
H 2.3281302 -0.4572413 -2.1486996
H 3.4962874 -1.7497945 -1.9739506
H 3.8499713 1.2369639 -1.4779832
H 4.8631292 0.1511447 -2.4031633
H -1.0381217 -2.5719195 -0.1551844
H -1.6876751 -1.3717986 -1.3123761
H -2.8964378 -1.1495251 0.8199418
H -1.3713362 -0.9449517 1.7117729
H 0.0059725 1.1789759 1.2138645
H -0.6669590 2.2875009 -0.0012481
H -0.3801707 0.6144491 -1.7824229
H 1.1739454 0.8726794 -0.9901739
H -4.3837499 1.4377560 -0.9790510
H -7.0725798 -0.6166898 2.6771061
H -4.8153205 0.3362894 3.1424636
H -8.8933772 -1.1185704 1.0729964
H -8.4644265 -0.0300866 -3.0576540
H -6.2175386 0.9148942 -2.5919750
