41

C -6.3101617 -0.7475436 1.2866073
N -5.7124485 0.1826968 0.3572860
C -6.5405353 1.0512196 -0.4470000
C -4.3405411 0.2516170 0.2414819
C -3.7245850 1.1474512 -0.6540084
C -2.3459763 1.1990079 -0.7707129
C -1.5207210 0.3697540 -0.0092656
C -2.1116206 -0.5189656 0.8882450
C -3.4930708 -0.5707247 1.0095458
N -0.1349427 0.4950928 -0.1908488
C 0.8376341 -0.2568510 0.3924603
O 0.6812102 -1.1951304 1.1513206
N 2.1535598 0.1291096 0.0602386
C 2.5809253 1.1280215 -0.7773839
O 1.8276591 1.8358178 -1.4343342
C 4.0842387 1.3664626 -0.8161002
C 4.9377093 0.1702563 -0.4763255
C 5.5024923 0.0350584 0.7925816
C 6.2412664 -1.0985191 1.1243169
C 6.4281676 -2.1069292 0.1826055
C 5.8675417 -1.9802373 -1.0856509
C 5.1231182 -0.8500297 -1.4112662
H -6.0103106 -1.7818904 1.0703614
H -6.0272161 -0.5243656 2.3246523
H -7.3995730 -0.6888610 1.2118470
H -7.5944072 0.8517192 -0.2352403
H -6.3726718 0.8886650 -1.5205801
H -6.3454601 2.1110147 -0.2321575
H -4.3209579 1.8154075 -1.2649320
H -1.8968113 1.8995103 -1.4734643
H -1.4853086 -1.1683940 1.4866720
H -3.9130663 -1.2699392 1.7247117
H 0.1964981 1.2209202 -0.8237978
H 2.8423647 -0.4403447 0.5330725
H 4.3013890 1.7507451 -1.8170806
H 4.2959169 2.1851539 -0.1169091
H 5.3495912 0.8212110 1.5303464
H 6.6662206 -1.1939468 2.1204332
H 7.0045637 -2.9923812 0.4390497
H 6.0108673 -2.7645270 -1.8253452
H 4.6672538 -0.7563279 -2.3951306
