25

O -1.0228449 -3.7237190 -0.6966961
C -0.4187326 -2.5472015 -0.7855160
O 0.7228876 -2.4448832 -1.1793470
C -1.2394990 -1.3742490 -0.3561086
N -2.4137261 -1.5690608 0.1862910
O -2.8627363 -0.3276741 0.5474084
C -1.9476031 0.6028156 0.2174211
C -0.8906161 0.0035374 -0.3976699
C 0.4356694 0.5573787 -0.8038195
C 1.4411309 0.3537670 0.3461275
N 1.2520916 1.3918322 1.3430223
C 2.8748720 0.2569330 -0.1830020
O 3.7142507 1.0939863 0.0374915
O 3.1410042 -0.8268068 -0.9250522
C -2.2195136 2.0169506 0.5903129
H -1.9175616 -3.6022899 -0.3326475
H 0.7730702 0.0675849 -1.7195116
H 0.3694029 1.6306173 -1.0172401
H 1.2123017 -0.6098750 0.8173387
H 1.7749655 2.2117026 1.0383828
H 1.6934653 1.1050595 2.2125778
H 2.3572854 -1.4063583 -0.9934213
H -1.3172782 2.4429068 1.0411779
H -3.0447771 2.0749787 1.3010703
H -2.4676134 2.6222577 -0.2884907
