24

C -0.2664917 -0.8264763 0.0983074
C -1.1392607 -2.0427946 0.3552146
O -2.3046466 -1.9935237 0.6704240
O -0.4609471 -3.1913037 0.2263898
C 0.6752817 -0.6206121 1.3035775
C 1.7473190 0.4565870 1.0736177
C 2.7966292 -0.0286234 0.0800080
O 3.7885931 -0.6125938 0.4390252
O 2.5447105 0.1661279 -1.2210995
N -1.1507429 0.2953801 -0.1310531
C -0.9347659 1.2560335 -1.0634749
O 0.1157964 1.3390604 -1.6990365
C -2.0631521 2.2437801 -1.2461993
H 0.3265954 -1.0048789 -0.8037857
H -1.0873506 -3.9054388 0.4332184
H 0.0692658 -0.3399483 2.1725568
H 1.1634382 -1.5737035 1.5364475
H 1.2923342 1.3974310 0.7464052
H 2.2740844 0.6403027 2.0135568
H 1.7042302 0.6551208 -1.3722638
H -2.0803123 0.1939958 0.2580093
H -1.8940980 2.7949015 -2.1712973
H -2.0780408 2.9534838 -0.4122636
H -3.0382691 1.7477935 -1.2862843
