34

C -0.6409469 -0.3206688 0.5319031
N 0.1915563 0.1394009 1.6203318
C 1.1707119 1.1711718 1.3026217
C 2.2164612 0.6968474 0.3124453
C 2.6791613 -0.6197836 0.3551923
C 3.6336512 -1.0618074 -0.5550664
C 4.1393346 -0.1933374 -1.5177044
C 3.6917079 1.1229308 -1.5601125
C 2.7381421 1.5637093 -0.6476245
C -1.7194362 -1.2877123 1.0313178
O -2.3940491 -0.7826294 2.1787647
C -2.7124605 -1.3555671 -0.1315242
O -3.9669719 -1.8826027 0.2397303
C -2.8128128 0.1232448 -0.5755166
O -3.7517725 0.7677936 0.2809001
C -1.4310036 0.7499825 -0.2851722
S -0.5550479 1.4209651 -1.7258891
H -0.0042297 -0.8797853 -0.1713299
H -0.4008136 0.4223624 2.3932132
H 0.7094300 2.0989919 0.9219367
H 1.6600417 1.4447403 2.2474662
H 2.2645451 -1.2965005 1.1000446
H 3.9742644 -2.0932731 -0.5176407
H 4.8815753 -0.5422985 -2.2308663
H 4.0815964 1.8097530 -2.3081712
H 2.3823355 2.5916826 -0.6920829
H -1.3061295 -2.2601785 1.3129582
H -2.8800797 0.0136343 1.8898176
H -2.3168604 -1.9692651 -0.9486933
H -3.9741605 -1.8747113 1.2112209
H -3.1223566 0.2288561 -1.6226712
H -4.5340862 0.1924747 0.2632989
H -1.6255826 1.6229228 0.3459731
H -0.2660150 0.2386567 -2.2933703
