46

O 2.2713331 -2.5347920 -0.2518700
C 2.3082914 -1.3251355 -0.0852988
N 1.1697550 -0.5202564 -0.1218822
C -0.0255792 -1.1030379 -0.7625523
C -1.0766245 -0.0060380 -0.9415867
N -1.3235723 0.7158981 0.2946956
C -0.1358290 1.3539204 0.8635428
C 0.8884779 0.2545036 1.1009638
C 0.3957624 2.5080075 0.0168437
C -2.5485592 1.2125173 0.6722002
O -2.6540936 2.2795461 1.2624109
C -3.7622018 0.3901442 0.3431398
C -4.9471554 1.0760184 0.0785775
C -6.1092983 0.3755730 -0.2211063
C -6.1025005 -1.0172773 -0.2274827
C -4.9328311 -1.7081284 0.0783937
C -3.7654535 -1.0066118 0.3642281
C 0.2620200 -1.7100800 -2.1337471
C 3.6088533 -0.6400110 0.2146626
C 4.6260372 -1.3969121 0.7987830
C 5.8551265 -0.8148823 1.0804172
C 6.0863242 0.5201143 0.7568063
C 5.0843502 1.2719686 0.1483055
C 3.8472708 0.6938351 -0.1202775
H -0.4253582 -1.8815977 -0.0960713
H -0.7158710 0.6867363 -1.7182423
H -2.0092726 -0.4306764 -1.3190237
H -0.4433387 1.7562635 1.8329950
H 1.8193476 0.6830205 1.4771067
H 0.4945435 -0.4138472 1.8840101
H 0.7352443 2.1684001 -0.9682993
H 1.2421989 2.9887189 0.5215867
H -0.3892599 3.2580704 -0.1208521
H -4.9368894 2.1623625 0.1114065
H -7.0251150 0.9175134 -0.4440487
H -7.0111538 -1.5650568 -0.4623557
H -4.9234545 -2.7940986 0.0790169
H -2.8574385 -1.5508082 0.6169766
H 0.9515719 -2.5490137 -2.0600412
H -0.6743696 -2.0626351 -2.5792146
H 0.6951037 -0.9538679 -2.7984805
H 4.4360140 -2.4433806 1.0225950
H 6.6393736 -1.4077353 1.5451220
H 7.0504885 0.9716559 0.9741021
H 5.2636234 2.3121822 -0.1079375
H 3.0641086 1.2789079 -0.5986176
