57

C -2.4367289 0.3032469 -0.8670305
C -2.9114605 -1.0801721 -0.3594266
C -3.1192025 -2.0408979 -1.5442339
O -2.3626451 -2.2238424 -2.4761874
N -4.3140232 -2.6674538 -1.3410384
C -4.8555433 -2.3697090 -0.0374258
N -4.2206237 -1.1224443 0.3567127
C -5.0798207 0.0209220 0.3744984
C -5.0679894 0.8718948 1.4816601
C -5.8791968 2.0025731 1.5065589
C -6.7097620 2.2977658 0.4288451
C -6.7222768 1.4541671 -0.6779014
C -5.9168113 0.3193065 -0.7065130
C -1.8607071 -1.6889479 0.5847247
C -0.4786318 -1.7838879 -0.0557203
N -0.1682612 -0.5914358 -0.8344231
C 1.2386466 -0.3501300 -1.0622130
C 2.0444243 0.1615905 0.1388646
C 3.5062152 0.3199724 -0.1962673
C 4.4604191 0.6935536 0.6635064
C 5.8946108 0.7116944 0.2534044
C 6.7871589 1.6419342 0.7965761
C 8.1233537 1.6706298 0.4178745
C 8.5704374 0.7436065 -0.5092205
C 7.7229171 -0.2024807 -1.0658704
C 6.3886304 -0.2076971 -0.6843249
F 9.8621607 0.7582636 -0.8780003
C 4.1343726 1.1288628 2.0727986
C -0.9707568 0.5673911 -0.5041178
H -2.5398275 0.3284507 -1.9566039
H -3.0585941 1.1060036 -0.4610012
H -4.5204386 -3.5132662 -1.8529643
H -4.6001086 -3.1648028 0.6855845
H -5.9452965 -2.2736230 -0.0640820
H -4.3999034 0.6454702 2.3109722
H -5.8533555 2.6562337 2.3742503
H -7.3390781 3.1838305 0.4494873
H -7.3703281 1.6732797 -1.5229862
H -5.9281715 -0.3397456 -1.5716848
H -1.8277012 -1.0704205 1.4906856
H -2.1922461 -2.6822102 0.9064949
H -0.4329854 -2.6579713 -0.7190639
H 0.2645810 -1.9521178 0.7422249
H 1.3326931 0.3770315 -1.8809462
H 1.6928248 -1.2813929 -1.4257966
H 1.6225782 1.1213270 0.4767015
H 1.9159272 -0.5323041 0.9844624
H 3.7823380 0.1397173 -1.2385689
H 6.4302127 2.3660153 1.5242325
H 8.8173475 2.3938959 0.8337860
H 8.1097035 -0.9111517 -1.7918485
H 5.7230971 -0.9589904 -1.1025322
H 3.1450660 0.7846964 2.3893407
H 4.1482136 2.2225125 2.1680176
H 4.8725684 0.7312733 2.7758411
H -0.6012252 1.4218277 -1.0832520
H -0.9073974 0.8486727 0.5653383
