39

N -3.0635726 -1.9657332 -0.8656035
C -1.9004810 -1.8093621 -1.5089066
N -0.9821122 -0.8483675 -1.3057335
C -1.2169391 0.0647809 -0.3578556
C -2.4073776 -0.0027773 0.3819029
C -3.2519633 -1.0384245 0.0594454
O -4.3374190 -0.9365178 0.8772750
C -4.0749437 0.1708806 1.6540122
N -2.9549434 0.7635715 1.4117637
C -5.1157114 0.5251333 2.6532634
N -0.3321679 1.0661076 -0.1348391
C 1.0245855 1.0306612 -0.6548306
C 1.5519358 2.4653611 -0.7305538
C 2.7793650 2.6096715 -1.5997574
O 3.1254413 1.8515073 -2.4756342
O 3.4562248 3.7391225 -1.3160950
C 1.9541795 0.1022305 0.1260496
C 2.1052141 0.2196330 1.5070383
C 2.9842229 -0.6136958 2.1912950
C 3.7200219 -1.5757408 1.5048612
C 3.5697829 -1.7048317 0.1280136
C 2.6904600 -0.8698967 -0.5534597
C -1.5829080 -2.8007580 -2.5936433
H -5.2812311 -0.3040968 3.3473375
H -6.0667294 0.7410157 2.1570938
H -4.8026401 1.4041071 3.2172331
H -0.5453144 1.6442744 0.6694053
H 0.9527135 0.6325094 -1.6692718
H 0.7697246 3.0999896 -1.1670306
H 1.7695599 2.8587032 0.2678463
H 4.2051552 3.7691854 -1.9346338
H 1.5365931 0.9654340 2.0621095
H 3.0974228 -0.5075711 3.2670579
H 4.4118040 -2.2196010 2.0423380
H 4.1384122 -2.4547012 -0.4162567
H 2.5798403 -0.9598912 -1.6329302
H -1.7303735 -2.3369079 -3.5746835
H -0.5356591 -3.1072868 -2.5244970
H -2.2399721 -3.6678180 -2.5091256
