25

O -1.4345008 -3.6349886 -1.4905350
C -0.6931625 -2.7692469 -0.7964376
O 0.4238647 -3.0248797 -0.4188926
C -1.3485742 -1.4518086 -0.5314489
N -2.5421586 -1.2165637 -1.0114520
O -2.8495437 0.0613791 -0.6351503
C -1.8295094 0.5853992 0.0744947
C -0.8317792 -0.3387968 0.1917009
C 0.4929456 -0.2461311 0.8798417
C 1.6420621 0.1498760 -0.0598161
N 2.9178859 0.0893490 0.6601105
C 1.4198251 1.5927267 -0.5353229
O 0.6658054 1.8919532 -1.4260564
O 2.1108856 2.4987650 0.1631751
C -1.9655760 1.9946289 0.5324185
H -2.2914391 -3.2269625 -1.7074332
H 0.4535761 0.4733067 1.7083749
H 0.7339184 -1.2277577 1.2999611
H 1.6032842 -0.5076249 -0.9361230
H 3.6842819 -0.0705139 0.0120445
H 2.9232103 -0.6807155 1.3216135
H 2.6803189 1.9780279 0.7732200
H -3.0169494 2.2669477 0.6411234
H -1.4496291 2.1470377 1.4853343
H -1.4989434 2.6666870 -0.1950469
