45

O -4.7987538 -1.0723570 1.2209708
N -5.0111633 -0.7188380 -0.0833968
C -3.8391305 -0.4561357 -0.6061435
C -2.8055352 -0.6137442 0.3953938
C -1.3337377 -0.4416566 0.3369286
O -0.6539437 -0.7018390 -0.6443708
N -0.7664166 0.0225882 1.4951248
C 0.6056959 0.2714311 1.6886201
C 1.1611845 0.7915302 2.8424128
N 2.5173539 0.8657592 2.6816921
C 3.4424873 1.3537765 3.6808335
C 2.8362964 0.3994026 1.4246553
C 1.6604525 0.0264831 0.7904208
C 4.2209491 0.3472576 0.9400357
O 5.2054881 0.6732261 1.5732523
O 4.2795809 -0.1153566 -0.3197918
C 5.5938436 -0.2029757 -0.9018517
C 5.4188044 -0.7441969 -2.3030619
C -3.4985660 -1.0100947 1.5119597
C -3.1341804 -1.3981050 2.9074240
C -3.8064538 -0.0403588 -2.0281300
C -4.9970653 0.3961316 -2.6160745
C -5.0273494 0.7843770 -3.9485012
C -3.8688785 0.7294945 -4.7156243
C -2.6833171 0.2860821 -4.1391424
C -2.6475473 -0.0986834 -2.8035929
H -1.3735017 0.3053732 2.2470967
H 0.7055079 1.1234571 3.7662252
H 3.9938143 2.2155270 3.3024484
H 2.8702616 1.6409012 4.5661938
H 4.1646848 0.5804907 3.9451530
H 1.5559252 -0.3750969 -0.2055137
H 6.0512867 0.7906308 -0.8999394
H 6.2142579 -0.8578832 -0.2834627
H 4.9574815 -1.7351858 -2.2771683
H 4.7879737 -0.0765445 -2.8961062
H 6.3914378 -0.8290851 -2.7975585
H -3.9402527 -1.9940247 3.3402612
H -2.2059851 -1.9727375 2.9263821
H -2.9898878 -0.5188679 3.5460863
H -5.9040845 0.4247553 -2.0200685
H -5.9609337 1.1262227 -4.3885396
H -3.8907269 1.0290755 -5.7600284
H -1.7740073 0.2358089 -4.7320084
H -1.7235472 -0.4460153 -2.3598924
