35

N -3.5846809 -1.9109208 0.0715826
C -3.9385232 -0.9851371 -0.8331310
N -3.4895784 0.2719243 -0.9130149
C -2.6185932 0.6509502 0.0183973
C -2.1425790 -0.2261201 1.0136006
C -2.6939221 -1.4947801 0.9699927
C -1.0343402 0.1359854 1.9731102
C 0.3576100 -0.1033014 1.4068651
C 0.8935949 0.7829740 0.4667862
C 2.1653707 0.5761930 -0.0606335
C 2.9097769 -0.5538729 0.3253106
C 2.3683055 -1.4350200 1.2460830
C 1.1034757 -1.2136413 1.7830872
O 4.1822957 -0.7637368 -0.1362636
C 4.2747890 -1.1550709 -1.4984325
O 2.7673077 1.4075789 -0.9529926
C 2.1182962 2.6244555 -1.2485669
N -2.1624932 1.9542666 -0.0762805
N -4.8737965 -1.3511770 -1.7543132
H -2.4044665 -2.2389191 1.7161102
H -1.1269384 1.1822041 2.2945859
H -1.1550690 -0.4588584 2.8850232
H 0.3062533 1.6343403 0.1413715
H 2.9597229 -2.2953709 1.5441580
H 0.7063140 -1.9185353 2.5102121
H 3.7729411 -2.1179876 -1.6620413
H 5.3406413 -1.2647344 -1.7115827
H 3.8449736 -0.3970250 -2.1609282
H 1.9337957 3.2078302 -0.3369334
H 2.7904980 3.1795183 -1.9046199
H 1.1644671 2.4515701 -1.7636935
H -2.7234746 2.4952830 -0.7244989
H -2.0159879 2.4295381 0.8053803
H -5.0350316 -2.3396186 -1.8653924
H -4.9606564 -0.7608789 -2.5671387
