50

O 6.1728393 1.3413793 -0.2445141
C 5.1091203 2.1688156 -0.3474337
O 5.2407026 3.3668879 -0.4215151
C 3.7840560 1.4390934 -0.3097079
C 3.7037734 0.2731119 -1.3045895
C 2.3307151 -0.3964445 -1.2355647
C 1.9816265 -0.8835610 0.1964960
C 2.1076368 0.3009400 1.1925807
C 3.4791402 0.9730161 1.1246913
C 2.9872970 -1.9025970 0.5855528
N 3.7796721 -2.6892888 0.8917541
C 0.5673166 -1.4903332 0.2410818
C 0.3325664 -2.8059321 0.6126545
C -0.9658005 -3.3192780 0.6412867
C -2.0495866 -2.5249703 0.3072140
O -3.3402287 -2.9334754 0.3011886
C -3.5954145 -4.2735038 0.6586678
C -1.8261680 -1.1778717 -0.0624450
C -0.5278515 -0.6891954 -0.1024302
O -2.9458648 -0.4808118 -0.3899701
C -2.8495022 0.9233910 -0.5860232
C -4.2071680 1.4385856 -1.0624869
C -4.2642227 2.9263800 -0.6434705
C -3.0587139 3.1376593 0.3084968
C -2.5984227 1.7254342 0.6908679
H 6.9538608 1.9190109 -0.2397873
H 3.0373792 2.1910933 -0.5875637
H 4.4926274 -0.4546406 -1.0876326
H 3.8791634 0.6387296 -2.3225483
H 2.2714805 -1.2439234 -1.9258059
H 1.5624310 0.3212673 -1.5480888
H 1.8933581 -0.0555742 2.2049589
H 1.3345765 1.0383007 0.9443294
H 4.2587612 0.2797762 1.4610404
H 3.4996700 1.8323651 1.8049865
H 1.1582637 -3.4586913 0.8821323
H -1.1084480 -4.3547890 0.9283260
H -3.0991539 -4.9738916 -0.0264147
H -3.2716506 -4.4838928 1.6868031
H -4.6758174 -4.4017273 0.5862231
H -0.3530024 0.3390493 -0.4106346
H -2.0770883 1.1406487 -1.3389569
H -4.3561929 1.2790667 -2.1352180
H -4.9754243 0.8599874 -0.5374584
H -4.2022122 3.5987128 -1.5054503
H -5.2116216 3.1412533 -0.1385233
H -3.3130522 3.7448662 1.1823773
H -2.2511645 3.6588411 -0.2200414
H -3.2323193 1.3089912 1.4837685
H -1.5616425 1.6875382 1.0423968
