25

O 0.0747004 -2.8139726 -0.3683902
C -1.2729554 -2.7561430 -0.2662505
O -1.9760749 -3.7277095 -0.3336731
C -1.7321997 -1.3577109 -0.0533644
N -2.9305160 -1.1635256 0.4369614
O -3.0592778 0.1901820 0.5634437
C -1.9407706 0.8035271 0.1414539
C -1.0376302 -0.1277280 -0.2840494
C 0.3420014 0.1325420 -0.8071415
C 1.3915637 0.1334450 0.3179262
N 1.0747590 1.1323987 1.3284620
C 2.7868884 0.4148589 -0.2132643
O 3.5797389 1.1665519 0.3045785
O 3.0826504 -0.2902867 -1.3198426
C -1.8956278 2.2893103 0.2215328
H 0.2944097 -3.7508132 -0.5031353
H 0.6100259 -0.6174007 -1.5513852
H 0.3658395 1.1128026 -1.3023756
H 1.4193783 -0.8903490 0.7221988
H 1.9359504 1.4710094 1.7484286
H 0.5164645 0.7054337 2.0591540
H 3.9956132 -0.0540518 -1.5553920
H -0.9147729 2.5930860 0.5989805
H -2.6803118 2.6609354 0.8822399
H -2.0297523 2.7436188 -0.7670922
