41

C -6.3552714 -0.6531076 -0.8114187
N -5.6533373 0.0010835 0.2690185
C -6.3429391 0.3284582 1.4955678
C -4.2891978 0.1871472 0.1852705
C -3.5677945 -0.1592813 -0.9731516
C -2.1995615 0.0436828 -1.0454023
C -1.4888483 0.5864503 0.0263674
C -2.1850664 0.9302779 1.1839798
C -3.5564663 0.7365107 1.2550682
N -0.1070949 0.7769012 -0.1352992
C 0.7963128 1.0139448 0.8545858
O 0.5679189 1.1166079 2.0448276
N 2.1310112 1.1542748 0.4069391
C 2.6425256 1.0551630 -0.8636466
O 1.9638983 0.7851048 -1.8452748
C 4.1445961 1.2529249 -0.9454359
C 4.8793019 -0.0074085 -0.5315157
C 5.8667780 0.0174792 0.4505346
C 6.5452173 -1.1474448 0.8019281
C 6.2384402 -2.3492145 0.1719767
C 5.2513337 -2.3813751 -0.8098857
C 4.5713200 -1.2183763 -1.1534293
H -5.9774788 -1.6702135 -0.9888366
H -7.4191523 -0.7239560 -0.5667890
H -6.2600225 -0.0912413 -1.7500243
H -7.4101311 0.1159115 1.3855485
H -6.2322126 1.3924521 1.7435136
H -5.9637324 -0.2549425 2.3466929
H -4.0743703 -0.5891867 -1.8294722
H -1.6690460 -0.2330370 -1.9553579
H -1.6525873 1.3449764 2.0308142
H -4.0586913 1.0178428 2.1738617
H 0.2798242 0.6715771 -1.0707159
H 2.7737807 1.3105916 1.1687346
H 4.3652531 1.5106583 -1.9863136
H 4.4470031 2.0982802 -0.3164290
H 6.1121833 0.9564271 0.9434353
H 7.3177591 -1.1141833 1.5665633
H 6.7683869 -3.2595423 0.4420448
H 5.0105025 -3.3174567 -1.3070061
H 3.7898684 -1.2348471 -1.9112747
