25

O 0.0673277 -2.7830395 -0.6522868
C -1.2474470 -2.7361876 -0.3414040
O -1.9483579 -3.7112686 -0.3115220
C -1.6815641 -1.3459751 -0.0420564
N -2.8542553 -1.1789625 0.5151149
O -2.9894993 0.1675427 0.6899127
C -1.8984815 0.8064312 0.2327623
C -1.0070287 -0.1010897 -0.2596266
C 0.3763369 0.1764434 -0.7641998
C 1.4287414 0.0525894 0.3662229
N 1.2314664 0.9472206 1.4900311
C 2.7993531 0.3330751 -0.2123902
O 3.3622174 1.3997480 -0.1493142
O 3.3128310 -0.7209920 -0.8737533
C -1.8981743 2.2929881 0.3355108
H 0.2739280 -3.7142122 -0.8362526
H 0.6333116 -0.5187642 -1.5629597
H 0.4190565 1.1910334 -1.1880853
H 1.4145246 -0.9846369 0.7118969
H 1.4612746 1.8948570 1.2069077
H 0.2649554 0.9197977 1.7995498
H 4.1661436 -0.4266868 -1.2334704
H -2.2948412 2.7581367 -0.5747260
H -2.5121409 2.6131342 1.1792346
H -0.8794774 2.6686176 0.4746031
