45

O -4.3575950 -1.6194808 1.3809304
N -4.9428039 -1.1683958 0.2302742
C -4.0900433 -0.3555533 -0.3421389
C -2.8765426 -0.2804012 0.4425667
C -1.6036155 0.4505215 0.2345037
O -1.5156649 1.5530954 -0.2851030
N -0.4937428 -0.2100318 0.6956902
C 0.8364735 0.2360434 0.5802934
C 1.3044501 1.4283272 0.0731311
N 2.6667634 1.4403052 0.1668705
C 3.5054672 2.5433361 -0.2561029
C 3.0810807 0.2551660 0.7343095
C 1.9581859 -0.5091295 1.0062671
C 4.4995622 -0.0460711 0.9563319
O 5.4297280 0.6650223 0.6302112
O 4.6565883 -1.2278675 1.5800293
C 6.0168392 -1.6124496 1.8625697
C 6.7285060 -2.1362058 0.6288597
C -3.1364507 -1.0998384 1.5129334
C -2.3990214 -1.5087828 2.7457661
C -4.4987042 0.2624914 -1.6249369
C -3.8639228 1.3843930 -2.1591429
C -4.2971720 1.9209301 -3.3666618
C -5.3695956 1.3552051 -4.0478306
C -6.0136268 0.2449591 -3.5133688
C -5.5828250 -0.2944231 -2.3088747
H -0.6051345 -1.1502081 1.0374054
H 0.7576043 2.2595803 -0.3440819
H 4.1978567 2.2197702 -1.0335994
H 4.0877430 2.9229187 0.5842558
H 2.8554738 3.3327182 -0.6398716
H 1.9743484 -1.4868961 1.4700511
H 6.5479684 -0.7583098 2.2925067
H 5.9177175 -2.3880548 2.6239482
H 7.7182083 -2.5096756 0.9114763
H 6.1621299 -2.9539219 0.1734487
H 6.8580196 -1.3412135 -0.1088873
H -1.7152367 -2.3425929 2.5436267
H -1.8075736 -0.6829165 3.1457942
H -3.1130077 -1.8410127 3.5020916
H -3.0356346 1.8363226 -1.6293218
H -3.7901225 2.7897014 -3.7775361
H -5.7036606 1.7786564 -4.9913601
H -6.8576536 -0.2018197 -4.0332938
H -6.0913652 -1.1544122 -1.8847270
