45

O -5.4710598 -1.6213110 0.6039072
N -5.2089847 -0.4181595 -0.0139100
C -3.9120653 -0.3466325 -0.1280126
C -3.2797366 -1.5065239 0.4481938
C -1.8522749 -1.8234136 0.6658424
O -1.4599973 -2.9444550 0.9649117
N -1.0033337 -0.7608376 0.5271330
C 0.3945018 -0.8038095 0.6486096
C 1.1854217 -1.8190304 1.1428686
N 2.4903528 -1.4225335 1.0889232
C 3.6081555 -2.2159578 1.5581745
C 2.5450244 -0.1542742 0.5509704
C 1.2501486 0.2527728 0.2744511
C 3.8116177 0.5561498 0.3489206
O 4.9155876 0.1280433 0.6221513
O 3.6017386 1.7732182 -0.1842737
C 4.7765211 2.5829340 -0.3850462
C 5.5428280 2.1730318 -1.6287626
C -4.3341080 -2.2721382 0.8648240
C -4.4389822 -3.5982581 1.5260585
C -3.3119224 0.7993290 -0.8556463
C -2.6658094 0.5838310 -2.0750661
C -2.0618977 1.6432326 -2.7421826
C -2.1140362 2.9260374 -2.2028590
C -2.7833933 3.1470728 -1.0014846
C -3.3931001 2.0894460 -0.3340022
H -1.3999554 0.1366471 0.2929973
H 0.8950535 -2.7892679 1.5169103
H 4.3414703 -2.3451090 0.7624775
H 4.1009825 -1.7242148 2.3982714
H 3.2254742 -3.1892004 1.8740012
H 0.9757754 1.2079992 -0.1531332
H 5.4071038 2.5212540 0.5068123
H 4.3847516 3.5979665 -0.4755661
H 4.8962568 2.1994262 -2.5109132
H 6.3756729 2.8657600 -1.7853348
H 5.9512140 1.1661658 -1.5169104
H -5.0517859 -4.2772865 0.9260430
H -4.9047623 -3.4971275 2.5110325
H -3.4418829 -4.0203045 1.6428109
H -2.6280787 -0.4228400 -2.4829234
H -1.5505567 1.4648244 -3.6840933
H -1.6425562 3.7555003 -2.7234126
H -2.8358525 4.1483445 -0.5817394
H -3.9295270 2.2535034 0.5974684
