41

C -5.5944110 -0.1513530 -0.0766922
N -4.4340504 -0.5152400 0.7031119
C -4.5476391 -1.4868624 1.7667660
C -3.1893137 -0.0520926 0.3289212
C -3.0325281 0.8357653 -0.7518354
C -1.7860085 1.2932689 -1.1481756
C -0.6412014 0.8748426 -0.4775396
C -0.7759331 0.0065020 0.6058765
C -2.0228933 -0.4452508 1.0107195
N 0.6568393 1.2471616 -0.8672074
C 1.0043152 2.2979276 -1.6768561
O 0.2394151 3.1102798 -2.1567678
N 2.3856212 2.4125774 -1.8986309
C 3.4737813 1.5401768 -1.8345582
O 4.5917803 2.0092945 -1.9035027
C 3.2606173 0.0299785 -1.7671817
C 3.3800173 -0.5318293 -0.3601519
C 4.4653632 -0.1770197 0.4398132
C 4.6076601 -0.7123920 1.7156803
C 3.6692419 -1.6141296 2.2096433
C 2.5865850 -1.9817716 1.4161275
C 2.4452764 -1.4428523 0.1395498
H -5.7563586 0.9346701 -0.0721352
H -5.5001266 -0.4725531 -1.1237637
H -6.4838528 -0.6270707 0.3456534
H -4.1992193 -1.0793998 2.7255453
H -3.9642084 -2.3943191 1.5553123
H -5.5955798 -1.7773022 1.8844324
H -3.8996873 1.1816995 -1.3037137
H -1.7001389 1.9774512 -1.9825280
H 0.1153314 -0.3191023 1.1345695
H -2.0895410 -1.1138050 1.8612302
H 1.4018670 0.8244254 -0.3300750
H 2.6531921 3.3257778 -2.2452999
H 4.0715698 -0.3815718 -2.3798693
H 2.3206887 -0.2711971 -2.2370750
H 5.1967657 0.5260368 0.0465902
H 5.4587739 -0.4262516 2.3284000
H 3.7780950 -2.0268515 3.2087956
H 1.8489216 -2.6840858 1.7977995
H 1.6010783 -1.7433268 -0.4803803
