50

O 5.8062265 1.9838996 -1.4915421
C 4.8554155 2.1306440 -0.5440362
O 5.0440497 2.7922244 0.4493846
C 3.5778798 1.3867257 -0.8952600
C 3.8958206 -0.0768725 -1.2789879
C 2.6864868 -0.9798984 -1.0572655
C 2.2971729 -1.0703061 0.4561666
C 2.6871516 0.2552607 1.1719658
C 2.5506712 1.4624926 0.2452990
C 3.1048088 -2.1468544 1.0829220
N 3.7468446 -2.9796537 1.5677329
C 0.8049464 -1.4436547 0.5798069
C 0.3940434 -2.7132078 0.1832359
C -0.9527189 -3.0768513 0.1897835
C -1.9236264 -2.1714403 0.5980708
O -3.2587125 -2.4218888 0.6324607
C -3.6978659 -3.6855135 0.1828970
C -1.5202899 -0.8925307 1.0209556
C -0.1780445 -0.5447911 1.0034187
O -2.4472604 0.0036806 1.4874779
C -3.1600056 0.6859072 0.4529944
C -2.2818793 1.6098178 -0.3894324
C -3.2904489 2.5682994 -1.0368881
C -4.4324388 2.7221841 0.0040326
C -4.1681353 1.6429487 1.0797175
H 6.5720497 2.4958259 -1.1816736
H 3.1680681 1.8993753 -1.7758262
H 4.7296094 -0.4440963 -0.6701129
H 4.2288883 -0.1190571 -2.3184377
H 2.8744571 -1.9849174 -1.4492539
H 1.8243268 -0.5917571 -1.6107669
H 3.7290697 0.1891072 1.5036231
H 2.0922637 0.3680751 2.0833598
H 2.6923476 2.3919485 0.8008015
H 1.5424530 1.4819368 -0.1860990
H 1.1283239 -3.4493608 -0.1390712
H -1.2355200 -4.0715287 -0.1334923
H -3.2781030 -4.4966979 0.7921435
H -4.7838847 -3.6817650 0.2842130
H -3.4285953 -3.8501721 -0.8688412
H 0.0672330 0.4643586 1.3220935
H -3.6618181 -0.0491875 -0.1902361
H -1.6164979 2.1618697 0.2876642
H -1.6564173 1.0683319 -1.1097498
H -3.6835516 2.1311068 -1.9621410
H -2.8382153 3.5278912 -1.3076306
H -4.4343185 3.7202299 0.4533629
H -5.4080338 2.5857072 -0.4744330
H -3.6918931 2.0847863 1.9629769
H -5.0721260 1.1269878 1.4182143
