61

N 8.8881996 1.1915072 -2.1947273
C 8.4735366 -0.0436439 -1.9056990
C 7.2511674 -0.3576380 -1.3318728
C 6.3549355 0.6816208 -1.0225650
C 6.7800664 1.9869536 -1.3294742
C 8.0315816 2.1705953 -1.8973490
N 5.1358732 0.4340369 -0.4481150
C 4.8698429 -0.8227236 0.2299739
C 3.8538897 -0.6210585 1.3516588
C 2.5034461 -0.1277667 0.8124747
C 2.6996286 0.7136246 -0.4695169
C 4.0600117 1.4102608 -0.5036945
C 1.5979560 -1.3184133 0.4960933
O 2.0667525 -2.4247930 0.2620160
N 0.2468800 -1.1213142 0.4527874
C -0.5721001 -2.3065474 0.1835999
C -2.0509922 -1.9844454 0.3415263
N -2.2570894 -1.2404616 1.5811486
C -1.4951598 0.0039789 1.7560835
C -0.4520851 0.1383944 0.6442513
S -3.7113351 -1.3681106 2.3654857
O -3.5600408 -0.6819373 3.6358495
O -4.1164868 -2.7605891 2.2845607
C -4.8240047 -0.4134528 1.3608058
C -5.3064281 -0.9467884 0.1965406
C -6.1083589 -0.1493509 -0.6648425
C -6.4285680 1.1777843 -0.2826085
C -5.9354439 1.6783778 0.9558784
C -5.1462658 0.9022677 1.7636839
C -7.2311258 1.9725815 -1.1466476
C -7.6761536 1.4545436 -2.3317710
C -7.3601001 0.1325005 -2.7271627
C -6.5940908 -0.6447044 -1.9016827
Cl -8.6571220 2.4239009 -3.3958968
H 9.1705793 -0.8472130 -2.1440163
H 6.9935822 -1.3965189 -1.1502216
H 6.1583253 2.8486191 -1.1071095
H 8.3660639 3.1813393 -2.1315531
H 4.5043790 -1.5864456 -0.4716236
H 5.8069588 -1.1923513 0.6576314
H 3.7202929 -1.5620371 1.8913885
H 4.2540333 0.1088207 2.0656729
H 2.0342416 0.4809766 1.5937648
H 1.9054320 1.4598644 -0.5686230
H 2.6275513 0.0583104 -1.3452888
H 4.1508889 1.9739223 -1.4376016
H 4.1421097 2.1342357 0.3226266
H -0.3721099 -2.6818143 -0.8259943
H -0.2810503 -3.0935872 0.8867122
H -2.4219692 -1.4120359 -0.5235072
H -2.6228594 -2.9128648 0.4029944
H -1.0229066 -0.0246281 2.7427236
H -2.1638166 0.8743429 1.7339473
H 0.2506940 0.9270061 0.9068437
H -0.9417833 0.4505194 -0.2908586
H -5.0838292 -1.9731069 -0.0801141
H -6.1903443 2.6925088 1.2512125
H -4.7622245 1.2679754 2.7121186
H -7.4816777 2.9908478 -0.8634501
H -7.7282875 -0.2422694 -3.6767911
H -6.3430908 -1.6636064 -2.1881751
