35

N -3.7633873 1.0491977 1.2349790
C -4.0114162 1.0317843 -0.0836486
N -3.4474361 0.2332194 -0.9957276
C -2.5352904 -0.6266758 -0.5504798
C -2.1372372 -0.6758551 0.8010887
C -2.8256860 0.1903727 1.6323105
C -0.9808246 -1.5170117 1.2867862
C 0.3733879 -0.8496319 1.0957161
C 0.9963494 -0.8674286 -0.1567479
C 2.2325062 -0.2558519 -0.3448385
C 2.8471586 0.4282793 0.7198815
C 2.2204061 0.4534612 1.9546364
C 0.9974555 -0.1842507 2.1445813
O 4.0846013 0.9991056 0.5819832
C 4.1263840 2.1677044 -0.2245914
O 2.9222454 -0.2707985 -1.5172157
C 2.4189890 -1.0778848 -2.5587038
N -1.9597196 -1.4427862 -1.5079016
N -4.9204675 1.9341031 -0.5519545
H -2.6154971 0.1961337 2.7049103
H -0.9838494 -2.5009219 0.7969193
H -1.1301142 -1.7237028 2.3520811
H 0.5075662 -1.3574149 -0.9915812
H 2.7152654 0.9710614 2.7704531
H 0.5420156 -0.1680366 3.1326772
H 3.7853608 1.9608875 -1.2439076
H 3.5151495 2.9672229 0.2151444
H 5.1716816 2.4846869 -0.2467469
H 1.4536229 -0.7014801 -2.9209039
H 3.1524518 -1.0339855 -3.3653783
H 2.3004279 -2.1194318 -2.2327092
H -2.4774500 -1.4107033 -2.3787233
H -1.7466290 -2.3863112 -1.2103612
H -5.5354853 2.3464597 0.1316102
H -5.2928413 1.7565809 -1.4721386
