24

C -0.4799524 -0.5144769 -0.2859069
C -0.9620688 -1.7718310 0.4115247
O -1.9577304 -1.8343938 1.0944502
O -0.1565137 -2.8249720 0.2016879
C 0.7114642 0.1387099 0.4430600
C 1.9695328 -0.7183690 0.4868797
C 3.1059763 0.0289001 1.1358473
O 3.0138245 1.0857776 1.7124996
O 4.2759810 -0.6270015 1.0085802
N -1.6047055 0.3833120 -0.3716589
C -1.6808224 1.3274103 -1.3505353
O -0.7819394 1.4845134 -2.1633319
C -2.9537216 2.1499730 -1.3352486
H -0.1622500 -0.7701998 -1.3026451
H -0.5377447 -3.5640589 0.7057280
H 0.4221020 0.4293173 1.4587231
H 0.9257217 1.0660742 -0.0984590
H 2.2859864 -1.0254512 -0.5165843
H 1.8110292 -1.6435216 1.0517101
H 4.9423060 -0.0768451 1.4523837
H -2.3773989 0.2093384 0.2564404
H -3.8352052 1.5099687 -1.4561190
H -3.0557368 2.6875630 -0.3857686
H -2.9181338 2.8703623 -2.1533573
