61

N 8.5578491 1.8719105 0.8767445
C 7.5372674 1.5904289 1.6885992
C 6.2867893 1.1611647 1.2713397
C 6.0464476 0.9874541 -0.1040861
C 7.1161061 1.2845988 -0.9676336
C 8.3172620 1.7150863 -0.4267407
N 4.8334914 0.5565939 -0.5752331
C 4.6840064 -0.0638828 -1.8822687
C 3.6694459 -1.2074681 -1.8233993
C 2.2749487 -0.7290275 -1.3795587
C 2.3936294 0.5858834 -0.5794811
C 3.6568265 0.5882659 0.2767817
C 1.6068967 -1.8061978 -0.5154754
O 2.2721269 -2.5649181 0.1758958
N 0.2340270 -1.8785943 -0.5266666
C -0.6768731 -0.8215057 -0.9447639
C -1.3509166 -0.1623441 0.2644637
N -1.9942191 -1.2065031 1.0772224
C -1.0407100 -2.2367010 1.5297206
C -0.4121886 -2.8906148 0.3043857
S -2.9713851 -0.6205502 2.3211535
O -2.2443033 0.3996306 3.0636494
O -3.5181840 -1.7839222 3.0036596
C -4.2666267 0.1738109 1.4148823
C -5.0178904 -0.5702640 0.5468097
C -6.0556835 0.0575941 -0.1948457
C -6.2961236 1.4435051 -0.0127287
C -5.4925976 2.1744057 0.9077448
C -4.4954136 1.5551339 1.6117006
C -7.3356179 2.0721997 -0.7505045
C -8.0891884 1.3400716 -1.6250901
C -7.8605342 -0.0440197 -1.8199124
C -6.8625098 -0.6612915 -1.1150596
Cl -9.3648001 2.1078450 -2.5303550
H 7.7266351 1.7205307 2.7547129
H 5.5203551 0.9481885 2.0092234
H 7.0086694 1.2078772 -2.0451550
H 9.1489749 1.9428113 -1.0933386
H 5.6547651 -0.4608015 -2.1914743
H 4.3779823 0.6794131 -2.6357893
H 4.0168709 -1.9574325 -1.1073005
H 3.6092203 -1.6927087 -2.8030973
H 1.6549015 -0.5541845 -2.2651210
H 2.4313274 1.4346864 -1.2725663
H 1.5170488 0.7458482 0.0587282
H 3.6861988 1.4973512 0.8867143
H 3.6477784 -0.2714333 0.9649463
H -0.1593165 -0.0725190 -1.5457657
H -1.4583200 -1.2724087 -1.5710035
H -2.1162516 0.5366885 -0.0874742
H -0.6306571 0.4034054 0.8713616
H -0.2606795 -1.7895948 2.1632062
H -1.5924999 -2.9689721 2.1264338
H 0.3375830 -3.6286079 0.5926604
H -1.2009134 -3.3773805 -0.2844763
H -4.8265608 -1.6329493 0.4246236
H -5.6842899 3.2350800 1.0424279
H -3.8728441 2.0921911 2.3207144
H -7.5252681 3.1331862 -0.6139915
H -8.4790203 -0.5919596 -2.5239866
H -6.6733455 -1.7239823 -1.2524626
