40

O 5.1494361 2.9656605 2.9696280
C 5.3777510 2.1004156 2.1460821
C 6.7911841 1.8157724 1.6845565
C 4.2625765 1.2922540 1.5674452
C 4.4686782 0.3036911 0.6047533
C 3.3996512 -0.4205511 0.1029621
C 2.0990456 -0.1749416 0.5588324
C 1.8815849 0.8180227 1.5193423
C 2.9604310 1.5362064 2.0086962
N 1.0637015 -0.9554049 0.0149725
C -0.2799953 -0.9370093 0.3077169
O -0.7638921 -0.2200279 1.1711917
C -1.0723055 -1.8830115 -0.5258420
C -0.6474059 -3.1577956 -0.9871321
N -1.5567157 -3.7479478 -1.7414318
N -2.5552198 -2.8541141 -1.8042644
C -2.3490011 -1.7297869 -1.0720365
C -3.3708643 -0.6804911 -0.9447815
C -3.6369424 -0.1175622 0.3025205
C -4.6733848 0.7791450 0.4772857
Cl -4.9970206 1.4532285 2.0538126
C -5.4837873 1.1576524 -0.5993075
O -6.5089783 2.0252510 -0.4895393
C -5.2206373 0.6154378 -1.8527827
C -4.1769042 -0.2750471 -2.0283552
O -4.0124435 -0.7668687 -3.2911782
H 6.8861599 1.9839021 0.6059303
H 7.0602961 0.7716139 1.8787170
H 7.4754228 2.4765739 2.2192501
H 5.4697304 0.0922462 0.2388258
H 3.5805339 -1.1873981 -0.6457812
H 0.8790655 1.0154145 1.8715030
H 2.8058862 2.3097910 2.7556234
H 1.3410521 -1.5583846 -0.7449838
H 0.2647328 -3.6923042 -0.7501938
H -3.3989532 -3.0961436 -2.3062974
H -3.0107224 -0.3809515 1.1428211
H -6.5920530 2.3099274 0.4323055
H -5.8364488 0.8963581 -2.7009149
H -3.0733485 -0.8830226 -3.4839507
