39

N -1.9888682 2.2009572 0.5926441
C -0.7394327 2.0221932 0.1383850
N -0.1335293 0.8594174 -0.1523373
C -0.8197795 -0.2773279 0.0191328
C -2.1418417 -0.2098686 0.4887570
C -2.6351866 1.0517921 0.7382255
O -3.9254323 0.9026375 1.1463703
C -4.1363507 -0.4596760 1.1098375
N -3.1241872 -1.1653974 0.7308728
C -5.4913077 -0.9274881 1.5010623
N -0.2577793 -1.4684794 -0.2809568
C 1.0867912 -1.6480794 -0.8208543
C 1.1703038 -1.3482591 -2.3375420
C 0.6271786 -0.0009025 -2.7739314
O 1.2718619 1.0161130 -2.8801786
O -0.6783669 -0.0649456 -3.0820350
C 2.1559566 -0.9718716 0.0382226
C 2.2429391 -1.3582611 1.3769257
C 3.2080288 -0.8199448 2.2221068
C 4.1012029 0.1296626 1.7352683
C 4.0152771 0.5322202 0.4071130
C 3.0486395 -0.0115294 -0.4369950
C 0.1022577 3.2517112 -0.0763617
H -6.2537676 -0.5135426 0.8334048
H -5.5297206 -2.0163365 1.4503584
H -5.7302653 -0.6093231 2.5200941
H -0.8882862 -2.2584244 -0.2565231
H 1.2599016 -2.7263612 -0.7320266
H 0.6043218 -2.1180322 -2.8655039
H 2.2170227 -1.4211166 -2.6474275
H -0.9511218 0.8453433 -3.2836138
H 1.5407066 -2.0971655 1.7582550
H 3.2617243 -1.1431838 3.2588868
H 4.8587207 0.5554520 2.3885722
H 4.7083218 1.2730642 0.0153589
H 2.9922614 0.3378990 -1.4659331
H 0.7921464 3.3948143 0.7619507
H -0.5353315 4.1361397 -0.1526887
H 0.6949911 3.1262035 -0.9867948
