44

Cl -0.3770520 -5.2955710 -0.9029871
C -0.9892180 -3.6716586 -0.8675903
C -0.6981984 -2.8364433 0.1967650
N -1.1307102 -1.5771755 0.2652309
C -1.9080287 -1.1146087 -0.7133554
N -2.3413201 0.2162936 -0.5580656
C -3.3652411 0.8504897 -1.2815657
O -4.0021998 0.3778235 -2.1948872
C -3.4860679 2.1997194 -0.6767798
N -4.3417420 3.1631533 -1.0129672
C -4.2158890 4.2652813 -0.2870517
C -3.2701677 4.3988264 0.7417414
N -2.4272944 3.4189867 1.0665250
C -2.5548819 2.3270702 0.3325616
C -1.7544903 1.0708376 0.4724359
O -0.3738230 1.2558207 0.1513832
C 0.5052319 1.1287359 1.1800248
O 0.1983652 1.2079562 2.3500153
N 1.7658418 0.9095646 0.7140107
C 1.9824333 0.3894611 -0.6423192
C 3.4560118 0.0072771 -0.7887315
N 3.9124145 -0.9510449 0.2131315
C 3.3894024 -0.6980412 1.5584558
C 2.8253689 0.7100650 1.6964591
C 3.6934880 -2.3292476 -0.1830572
C -2.2573298 -1.8873370 -1.8333021
C -1.7811963 -3.1849689 -1.9019286
H -0.1016997 -3.1955478 1.0329478
H -4.8939066 5.0835705 -0.5205087
H -3.1979637 5.3204077 1.3131287
H -1.8169546 0.6316257 1.4746171
H 1.7170060 1.1576040 -1.3756360
H 1.3375217 -0.4843577 -0.8199754
H 4.0618400 0.9224133 -0.7276749
H 3.6414647 -0.4194366 -1.7796772
H 2.5756038 -1.4050460 1.7947119
H 4.1856194 -0.8700805 2.2957713
H 2.3816439 0.8555841 2.6817903
H 3.6150248 1.4609101 1.5637202
H 4.2237545 -2.5375782 -1.1180555
H 2.6266210 -2.5845066 -0.3255410
H 4.1012614 -2.9951728 0.5844826
H -2.8821985 -1.4741751 -2.6120479
H -2.0285403 -3.8173866 -2.7494090
