36

C 4.5898680 0.6247778 -1.1080905
C 4.3682209 1.1632696 0.2777881
C 3.9130782 -0.2201471 -0.0740980
N 2.5004439 -0.4010128 -0.2384876
C 1.7752483 -0.5118225 1.0128863
C 0.2663444 -0.6621747 0.7849226
C -0.3613704 0.5498320 0.0696850
N -0.0236062 0.6566516 -1.3438592
C -1.8844689 0.6251736 0.2571220
C -2.6822217 -0.5286086 -0.3521608
C -4.1970751 -0.4086681 -0.1473076
C -4.8462955 0.7456354 -0.9092219
O 0.0565477 -1.8189922 -0.0225498
O -0.3721600 -0.8000400 2.0399954
H 5.5950378 0.3682285 -1.4269205
H 3.9384633 1.0123666 -1.8857005
H 5.2210704 1.2795758 0.9392957
H 3.5803295 1.9011245 0.3981720
H 4.4835034 -1.0524880 0.3465817
H 2.3165605 -1.2215948 -0.8094792
H 2.0989754 -1.3772932 1.6171112
H 1.9669657 0.3877534 1.6059027
H 0.0440472 1.4458841 0.5600578
H 0.9758040 0.8331838 -1.4257585
H -0.1815223 -0.2466391 -1.7824005
H -2.1100806 0.7077695 1.3263877
H -2.1954754 1.5656061 -0.2158517
H -2.3386642 -1.4749865 0.0788774
H -2.4723696 -0.5841098 -1.4307743
H -4.4152033 -0.3135206 0.9257372
H -4.6638154 -1.3493984 -0.4659604
H -5.9335513 0.7443140 -0.7765565
H -4.4765664 1.7194775 -0.5707443
H -4.6428326 0.6684339 -1.9835312
H -0.0096580 -2.5718761 0.5806035
H 0.1163299 -1.4559864 2.5553283
