57

C -2.5009361 -0.1718124 -1.3968465
C -2.9004097 -1.0320609 -0.1682352
C -2.5818264 -2.5086288 -0.4797485
O -1.4909903 -3.0414424 -0.5056653
N -3.7712704 -3.1097965 -0.7781531
C -4.8723757 -2.1753888 -0.7912218
N -4.3620265 -1.1026918 0.0419758
C -5.1637502 0.0550412 0.2102693
C -5.2733040 0.6278409 1.4828176
C -6.0917386 1.7301675 1.7013338
C -6.8163961 2.2893496 0.6541814
C -6.7132777 1.7314330 -0.6156391
C -5.8989985 0.6250627 -0.8417087
C -2.1574618 -0.5405855 1.0749740
C -0.6380674 -0.5673367 0.8845163
N -0.2338855 -0.1394806 -0.4593688
C 1.0661177 0.5002654 -0.4691798
C 2.1901819 -0.4453290 -0.0618909
C 3.5369959 0.2305523 -0.1107410
C 4.6863329 -0.2977299 0.3240284
C 5.9802780 0.4168385 0.1292562
C 6.1865605 1.2532446 -0.9785949
C 7.3898575 1.9186938 -1.1672612
C 8.3969593 1.7526716 -0.2284007
C 8.2349561 0.9375470 0.8796759
C 7.0274569 0.2709739 1.0453925
F 9.5623304 2.3986641 -0.4008212
C 4.7211274 -1.6207563 1.0530535
C -1.2466975 0.6594944 -1.1254529
H -2.3297238 -0.8317831 -2.2537843
H -3.3308707 0.4934302 -1.6576536
H -3.7729358 -3.9773437 -1.2893588
H -5.0993310 -1.8161151 -1.8149494
H -5.7802769 -2.6088365 -0.3595464
H -4.7094600 0.1853148 2.3007605
H -6.1588640 2.1492485 2.7013098
H -7.4568428 3.1501540 0.8271154
H -7.2724068 2.1588954 -1.4442672
H -5.8249601 0.2178781 -1.8485423
H -2.4763381 0.4878309 1.2956696
H -2.4244769 -1.1544185 1.9407943
H -0.1842025 0.0856317 1.6497919
H -0.2692190 -1.5847362 1.0537393
H 1.2681191 0.8502260 -1.4890913
H 1.0849871 1.3963880 0.1867019
H 1.9978880 -0.8346537 0.9499034
H 2.1643878 -1.3226219 -0.7274845
H 3.5468165 1.2457436 -0.5156894
H 5.4017945 1.3664694 -1.7224243
H 7.5533160 2.5673925 -2.0226155
H 9.0475630 0.8290840 1.5909537
H 6.8965129 -0.3702185 1.9128666
H 3.8182510 -2.2107672 0.8668652
H 5.5839296 -2.2133709 0.7341175
H 4.8052441 -1.4760910 2.1380786
H -0.8334755 1.0076051 -2.0778202
H -1.5116672 1.5652702 -0.5458840
