39

S 1.0114384 0.3440208 1.6031122
O 0.8852317 1.7873709 1.5471592
O 0.0515398 -0.4536126 2.3686890
N 2.4953707 -0.1021707 2.2374491
C 3.6711060 0.6427768 2.1532860
O 3.9036161 1.4157510 1.2508588
C 4.6274375 0.3656012 3.2962274
C 5.9052491 1.1860644 3.1785976
C 1.0454587 -0.2887817 -0.0555359
C -0.1763535 -0.6214705 -0.6784121
N -1.3610786 -0.5225361 0.0119916
C -2.6465922 -0.4481154 -0.5275179
C -2.9153027 0.2174139 -1.7251273
C -4.2173388 0.2671966 -2.2082152
C -5.2643383 -0.3255512 -1.5114058
C -4.9971441 -0.9662044 -0.3045988
C -3.7017696 -1.0194940 0.1925215
C -4.4978745 0.9598976 -3.5110142
F -3.3855512 1.4679580 -4.0704625
F -5.3692750 1.9756155 -3.3545348
F -5.0490902 0.1170082 -4.4067118
C -0.1027208 -1.0770114 -1.9979674
C 1.1348444 -1.1370597 -2.6239755
N 2.2868825 -0.7709235 -2.0575141
C 2.2232945 -0.3481764 -0.7957533
H 2.3920292 -0.7473876 3.0124146
H 4.1120573 0.5872323 4.2416459
H 4.8550623 -0.7091865 3.3045492
H 6.5717218 0.9905649 4.0243483
H 6.4349365 0.9429617 2.2537433
H 5.6745701 2.2545485 3.1508075
H -1.2712442 -0.5711319 1.0251992
H -2.1169016 0.7107986 -2.2705906
H -6.2725930 -0.2772652 -1.9090633
H -5.8059198 -1.4255110 0.2553909
H -3.4940057 -1.5139155 1.1408227
H -1.0000932 -1.3920595 -2.5229799
H 1.1985567 -1.4879709 -3.6519452
H 3.1648786 -0.0273515 -0.3561934
