34

C -1.1999607 -0.3036512 -0.3626275
N 0.1303047 0.2231162 -0.1568176
C 1.1739163 -0.7783706 -0.3507110
C 2.5642888 -0.1949395 -0.2166268
C 3.6432607 -1.0354267 0.0598805
C 4.9346001 -0.5277709 0.1544311
C 5.1627988 0.8335347 -0.0243494
C 4.0914118 1.6786881 -0.2949357
C 2.8014241 1.1671599 -0.3918904
C -1.7350077 -1.2055501 0.7824014
O -1.2414762 -0.7170153 2.0107110
C -3.2908974 -1.0728507 0.7228806
O -3.7756701 -0.7281468 2.0049201
C -3.5737155 0.0379676 -0.3218457
O -4.6581091 0.8186959 0.1315239
C -2.2547971 0.8015268 -0.4355153
S -2.2004198 1.8043203 -1.9423565
H -1.2231794 -0.8686022 -1.3079275
H 0.1711589 0.5363085 0.8136090
H 1.0786987 -1.6342189 0.3438670
H 1.0475753 -1.1910351 -1.3629047
H 3.4738292 -2.1013580 0.2015261
H 5.7658145 -1.1954234 0.3688558
H 6.1705190 1.2342981 0.0483057
H 4.2588502 2.7446205 -0.4293202
H 1.9614067 1.8231840 -0.5993941
H -1.4276320 -2.2544484 0.6480072
H -2.0363006 -0.5734084 2.5566808
H -3.7511781 -2.0169639 0.4092671
H -4.3884827 0.0165721 1.8783587
H -3.8060756 -0.4372192 -1.2854482
H -4.8069289 1.5358094 -0.5012219
H -2.1568645 1.4514069 0.4402491
H -0.9033679 2.1289900 -1.8361858
