44

Cl -0.4366808 -5.3718628 -0.9184550
C -0.9972479 -3.7294773 -0.8910741
C -0.7591877 -2.9304600 0.2133058
N -1.1552907 -1.6591297 0.2832190
C -1.8441045 -1.1495501 -0.7386687
N -2.2509966 0.1893503 -0.5838901
C -3.2764335 0.8346472 -1.2972071
O -3.8971499 0.3807718 -2.2309347
C -3.4221918 2.1594755 -0.6460038
N -4.2912600 3.1207181 -0.9525364
C -4.1995152 4.1894353 -0.1735259
C -3.2762059 4.2923476 0.8791339
N -2.4119342 3.3190104 1.1671248
C -2.5034575 2.2625434 0.3775563
C -1.6669143 1.0265073 0.4581545
O -0.3007993 1.2722873 0.1060602
C 0.6013236 1.1995007 1.1159188
O 0.3064633 1.0741992 2.2846152
N 1.8873404 1.2951479 0.6478844
C 2.2184441 0.9487283 -0.7322622
C 2.5149400 -0.5451065 -0.8276279
N 3.5844399 -0.9000283 0.1010640
C 3.2448033 -0.5605048 1.4785791
C 2.9368230 0.9311221 1.5918831
C 3.9269356 -2.3022849 -0.0154834
C -2.1345298 -1.8833875 -1.9012563
C -1.6939349 -3.1937566 -1.9695173
H -0.2218482 -3.3286801 1.0718560
H -4.8889184 5.0046997 -0.3824359
H -3.2419523 5.1835399 1.5007705
H -1.6823926 0.5554419 1.4454462
H 1.3961491 1.2387826 -1.3865886
H 3.1106897 1.5238791 -1.0058300
H 1.5908317 -1.1188713 -0.6260085
H 2.8420694 -0.8032389 -1.8423991
H 2.3737157 -1.1421837 1.8418622
H 4.0965216 -0.8215113 2.1190518
H 2.5933933 1.1871033 2.5949143
H 3.8296467 1.5202386 1.3545509
H 3.0790589 -2.9734789 0.2281217
H 4.2564449 -2.5224601 -1.0362564
H 4.7561113 -2.5396916 0.6591562
H -2.6959693 -1.4336238 -2.7083980
H -1.8969352 -3.8001855 -2.8469666
