39

N -3.1189387 -1.7939064 -1.1529912
C -1.9432982 -1.6277727 -1.7683983
N -0.9658218 -0.7657149 -1.4296762
C -1.1570555 0.0389731 -0.3755388
C -2.3539121 -0.0611463 0.3491626
C -3.2560943 -0.9900425 -0.1109837
O -4.3403096 -0.9343712 0.7113435
C -4.0176100 0.0377212 1.6338573
N -2.8618970 0.5881922 1.4748508
C -5.0472708 0.3134049 2.6693434
N -0.2304064 0.9668879 -0.0289685
C 1.1024038 0.9997190 -0.6089091
C 1.4570415 2.4479919 -0.9674911
C 2.5988552 2.6476657 -1.9620914
O 2.5986607 3.5384964 -2.7694984
O 3.6368461 1.7910858 -1.8958985
C 2.1052030 0.2663400 0.2795629
C 2.1404253 -1.1291523 0.1854783
C 2.9955668 -1.8767351 0.9874907
C 3.8229181 -1.2386527 1.9078311
C 3.7773714 0.1470981 2.0260709
C 2.9158595 0.8964491 1.2248470
C -1.6966734 -2.4830755 -2.9792150
H -4.6821812 1.0659044 3.3690824
H -5.2894694 -0.6001336 3.2199681
H -5.9677438 0.6785167 2.2032890
H -0.3879789 1.4156523 0.8652458
H 1.0046204 0.4249094 -1.5347175
H 0.5779761 2.9056369 -1.4199742
H 1.6788713 3.0284150 -0.0634264
H 3.5069119 1.1399837 -1.1859040
H 1.4789743 -1.6181082 -0.5279594
H 3.0201390 -2.9593871 0.8941261
H 4.4923324 -1.8213642 2.5356689
H 4.4227249 0.6509475 2.7398098
H 2.8894370 1.9762828 1.3572676
H -0.7119747 -2.9538572 -2.9208651
H -2.4734040 -3.2466983 -3.0484008
H -1.7210009 -1.8663564 -3.8831911
