57

C -2.2249728 -0.2504620 -1.4806640
C -2.8654647 -0.9474162 -0.2616740
C -2.5587485 -2.4583080 -0.3370195
O -1.4626198 -2.9848891 -0.3230589
N -3.7470762 -3.1153162 -0.4269755
C -4.8979353 -2.2709955 -0.2347266
N -4.3359377 -0.9331331 -0.3233065
C -5.1704376 0.1648453 -0.1227837
C -4.7094019 1.4928945 -0.1145652
C -5.5889033 2.5570922 0.0468187
C -6.9518386 2.3459068 0.2203566
C -7.4228912 1.0389950 0.2236000
C -6.5545888 -0.0320661 0.0520472
C -2.3077051 -0.3929618 1.0695358
C -0.7822015 -0.3117508 1.0516099
N -0.3466837 0.4786845 -0.0939841
C 1.0250278 0.9430195 -0.0175189
C 2.1087334 -0.1398738 -0.0369630
C 3.4944184 0.4427696 0.0474410
C 4.6299423 -0.2631179 0.0345670
C 5.9492081 0.4139973 0.1894779
C 6.0772038 1.5759637 0.9657545
C 7.2991596 2.2179876 1.1077775
C 8.4051029 1.6960586 0.4536371
C 8.3231866 0.5494105 -0.3192777
C 7.0944274 -0.0877331 -0.4373233
F 9.5888187 2.3198070 0.5756049
C 4.6310734 -1.7610989 -0.1598742
C -0.7029852 -0.1664955 -1.3524931
H -2.6319715 0.7587237 -1.5819042
H -2.5021668 -0.7954822 -2.3891548
H -3.7676188 -4.1104455 -0.2816985
H -5.6417645 -2.4262148 -1.0266993
H -5.3696407 -2.4319607 0.7493335
H -3.6548281 1.7142652 -0.2210200
H -5.1915510 3.5683902 0.0418852
H -7.6304502 3.1834232 0.3514842
H -8.4844840 0.8411092 0.3599816
H -6.9668230 -1.0337925 0.0579643
H -2.6505084 -1.0280622 1.8929310
H -2.7099970 0.6075491 1.2473918
H -0.3633714 -1.3316895 1.0421237
H -0.4323273 0.1837433 1.9660214
H 1.1940252 1.6346705 -0.8532937
H 1.1292886 1.5349021 0.9013483
H 1.9358948 -0.8398634 0.7961930
H 2.0003323 -0.7422103 -0.9529162
H 3.5544079 1.5326001 0.0950244
H 5.2101575 1.9704736 1.4898876
H 7.4024632 3.1184883 1.7054944
H 9.2118784 0.1692254 -0.8129099
H 7.0252337 -0.9897954 -1.0396462
H 3.6497301 -2.1997225 0.0443596
H 5.3580414 -2.2334597 0.5080602
H 4.9052289 -2.0315349 -1.1879710
H -0.2773663 -1.1803191 -1.4405784
H -0.2985248 0.4355758 -2.1756119
