57

C -1.7058691 -1.4676992 -1.8029947
C -3.0089301 -1.6425073 -0.9972203
C -3.9792381 -2.5689934 -1.7325546
O -3.7392496 -3.6896862 -2.1412123
N -5.1699028 -1.9175631 -1.8192221
C -5.1793273 -0.5991363 -1.2351730
N -3.7737878 -0.3722468 -0.9294450
C -3.4549789 0.6102760 0.0462855
C -2.4768292 1.5718792 -0.2340328
C -2.1207253 2.5265075 0.7142498
C -2.7434189 2.5454383 1.9585338
C -3.7266371 1.6034256 2.2448074
C -4.0822013 0.6428869 1.3021340
C -2.6909721 -2.2958195 0.3707605
C -1.3121645 -1.8948752 0.8748471
N -0.2846692 -2.4408849 -0.0038984
C 1.0532227 -1.9569483 0.2691920
C 1.3597316 -0.5146792 -0.1539721
C 2.7659733 -0.1016246 0.1983233
C 3.2754151 1.1194578 0.0000440
C 4.7097401 1.4031771 0.2920918
C 5.6929141 0.4210154 0.0985638
C 7.0288448 0.6721012 0.3778552
C 7.3826364 1.9200295 0.8688389
C 6.4441147 2.9184988 1.0728760
C 5.1135091 2.6531470 0.7736171
F 8.6726217 2.1673478 1.1514115
C 2.4163445 2.2602064 -0.4990251
C -0.6750106 -2.5283211 -1.4081234
H -1.9208394 -1.5210144 -2.8742447
H -1.2916005 -0.4735836 -1.5993744
H -5.9790118 -2.3865458 -2.1904357
H -5.8044111 -0.5597367 -0.3275921
H -5.5541669 0.1563303 -1.9393313
H -2.0091040 1.5716416 -1.2155804
H -1.3442494 3.2498861 0.4739605
H -2.4696771 3.2914722 2.6991803
H -4.2246954 1.6108503 3.2119352
H -4.8459039 -0.0929331 1.5492855
H -2.7117271 -3.3836435 0.2424567
H -3.4703680 -2.0376780 1.0942672
H -1.2629435 -0.7933505 0.9572284
H -1.1499064 -2.2923683 1.8848635
H 1.2263705 -2.0526956 1.3489180
H 1.7715447 -2.6286002 -0.2215174
H 0.6367399 0.1667928 0.3212305
H 1.1990703 -0.4076025 -1.2380712
H 3.3931211 -0.8615062 0.6718520
H 5.4103166 -0.5501391 -0.3008953
H 7.7923059 -0.0858145 0.2317638
H 6.7611907 3.8845551 1.4523732
H 4.3711295 3.4313405 0.9326106
H 1.5898516 1.8992623 -1.1193971
H 1.9739442 2.8318835 0.3294400
H 3.0097004 2.9539068 -1.1013278
H -1.1068908 -3.5185765 -1.6130254
H 0.2187557 -2.4462425 -2.0357284
