57

C -2.3922056 -0.1330120 -1.7441250
C -2.9186778 -0.9790482 -0.5615158
C -2.6532974 -2.4704987 -0.8475377
O -1.5893464 -2.9788118 -1.1423059
N -3.8358114 -3.1267315 -0.7032944
C -4.9219211 -2.2949711 -0.2532798
N -4.3860619 -0.9526914 -0.4265151
C -5.1397560 0.1407773 -0.0003795
C -4.6568843 1.4590469 -0.0720144
C -5.4459506 2.5321731 0.3264351
C -6.7327945 2.3339646 0.8137044
C -7.2233939 1.0366771 0.8895796
C -6.4475933 -0.0431380 0.4860873
C -2.1931993 -0.6060845 0.7510974
C -0.6737008 -0.6573884 0.5989266
N -0.2059363 -0.0785295 -0.6648115
C 1.0741397 0.5832725 -0.5271690
C 2.1921853 -0.4032693 -0.2132988
C 3.5314461 0.2728411 -0.0841820
C 4.6696108 -0.3353063 0.2665440
C 5.9587379 0.4099025 0.2822250
C 6.1912462 1.4677498 -0.6094761
C 7.3885326 2.1686862 -0.5977508
C 8.3584510 1.8134429 0.3277860
C 8.1688426 0.7749731 1.2246974
C 6.9703743 0.0744537 1.1874569
F 9.5160703 2.4945772 0.3519704
C 4.6974599 -1.7858015 0.6871892
C -1.2014596 0.7367012 -1.3371559
H -3.1985259 0.4782089 -2.1616733
H -2.0594854 -0.8066308 -2.5399140
H -3.8542782 -4.1319065 -0.6902522
H -5.8146466 -2.4317114 -0.8763334
H -5.1846997 -2.4857195 0.8023827
H -3.6535216 1.6582448 -0.4342740
H -5.0417923 3.5382230 0.2550633
H -7.3425067 3.1758948 1.1271225
H -8.2277016 0.8520404 1.2671497
H -6.8677929 -1.0397006 0.5539369
H -2.5052670 -1.2894517 1.5468385
H -2.4971785 0.3989760 1.0646829
H -0.3323092 -1.6985744 0.6588375
H -0.2307315 -0.1191463 1.4533740
H 1.3112256 1.0829499 -1.4740029
H 1.0459513 1.3744678 0.2513973
H 2.2085059 -1.1670414 -1.0067993
H 1.9561985 -0.9471008 0.7146919
H 3.5460254 1.3514517 -0.2606460
H 5.4330366 1.7299070 -1.3435507
H 7.5746205 2.9876674 -1.2856594
H 8.9527439 0.5227040 1.9313009
H 6.8158361 -0.7459196 1.8834087
H 3.8086922 -2.3256638 0.3453666
H 4.7485884 -1.8832821 1.7795494
H 5.5786223 -2.2860440 0.2743830
H -0.7409423 1.1536991 -2.2392941
H -1.5278783 1.5998046 -0.7235761
