40

O 5.2895395 2.4053818 -0.1940549
C 5.2582640 1.6168100 0.7317028
C 6.5142854 1.2794843 1.5061869
C 3.9718487 0.9622931 1.1228756
C 3.8702920 0.0446213 2.1703721
C 2.6514165 -0.5374370 2.4837543
C 1.5083024 -0.2273439 1.7424126
C 1.5976642 0.7117388 0.7089998
C 2.8187963 1.2887675 0.4055202
N 0.3002132 -0.8683979 2.0883061
C -0.8183110 -1.2325923 1.3534877
O -1.8557474 -1.4685747 1.9533524
C -0.6832419 -1.3725610 -0.1199983
C 0.4107048 -1.9663555 -0.7880632
N 0.1882566 -2.1222487 -2.0776953
N -1.0410403 -1.6290910 -2.2596607
C -1.6258981 -1.1466320 -1.1357520
C -2.9267840 -0.4561721 -1.1284283
C -3.2612987 0.4254797 -0.0955248
C -4.4671931 1.1004403 -0.0624037
Cl -4.8381662 2.1740826 1.2455092
C -5.4000154 0.9204194 -1.0878894
O -6.5677106 1.5957800 -1.0240506
C -5.0890495 0.0564711 -2.1337623
C -3.8715069 -0.6109358 -2.1582452
O -3.5575617 -1.4315921 -3.2023147
H 7.3453368 1.8449354 1.0819222
H 6.7330796 0.2076103 1.4464356
H 6.4009881 1.5358765 2.5653822
H 4.7461358 -0.2201036 2.7567238
H 2.5790299 -1.2513697 3.3006850
H 0.7143709 0.9649225 0.1288316
H 2.9003518 2.0060376 -0.4048050
H 0.1415550 -1.0084658 3.0780719
H 1.3535276 -2.2772927 -0.3596523
H -1.4913941 -1.6938247 -3.1607554
H -2.5637254 0.5920747 0.7152548
H -7.0991629 1.3795575 -1.8016754
H -5.8085367 -0.0862651 -2.9432364
H -4.3279133 -1.5055287 -3.7815178
