36

C 4.2333155 1.6077266 -0.5520381
C 4.0527403 0.2225086 -1.1065415
C 3.8278661 0.4908218 0.3557801
N 2.4691947 0.4939748 0.8027004
C 1.9490823 -0.8236344 1.1148874
C 0.4211112 -0.7664411 1.2400478
C -0.2504553 -0.4052094 -0.1109538
N -0.1992122 -1.6221256 -0.9405019
C -1.6968004 0.0423222 0.1207368
C -2.4242096 0.4495967 -1.1637643
C -3.7979984 1.0865699 -0.9283177
C -4.8152829 0.1350816 -0.3010967
O 0.1515048 0.2055676 2.2236100
O -0.0931261 -1.9951269 1.7013616
H 5.2391047 2.0058382 -0.4597163
H 3.4710964 2.3435872 -0.7848644
H 4.9306477 -0.3423340 -1.4070546
H 3.1576841 0.0404599 -1.6980296
H 4.5920829 0.1145293 1.0432833
H 2.3418655 1.1211191 1.5918653
H 2.2469967 -1.5162108 0.3187493
H 2.3148416 -1.2301322 2.0684197
H 0.3170726 0.4160804 -0.5763743
H -0.9608720 -1.6325806 -1.6103726
H 0.6594674 -1.6594395 -1.4829704
H -2.2318698 -0.7693820 0.6349134
H -1.6875827 0.8955222 0.8102326
H -2.5611304 -0.4265924 -1.8147160
H -1.7921780 1.1538458 -1.7222202
H -4.1868177 1.4433691 -1.8902429
H -3.6884175 1.9770507 -0.2945672
H -5.8039272 0.6009315 -0.2303851
H -4.9199727 -0.7778061 -0.8993198
H -4.5181871 -0.1628604 0.7100020
H -0.5529369 -0.1854947 2.7553643
H -0.1947968 -2.5309365 0.8896946
