39

N -3.5474690 -1.1595467 -1.4836193
C -2.3458084 -1.4206523 -2.0081255
N -1.1463092 -1.0822026 -1.4999822
C -1.1099781 -0.4199892 -0.3358465
C -2.3156424 -0.0977061 0.3072819
C -3.4615757 -0.5009173 -0.3394602
O -4.5157206 -0.0911559 0.4201422
C -3.9331339 0.5438818 1.4948203
N -2.6437480 0.5752064 1.4857642
C -4.8671558 1.0997834 2.5072116
N 0.0798090 -0.0973826 0.2292351
C 1.3280689 -0.1905263 -0.4998271
C 1.4934408 0.9705052 -1.4989713
C 1.3002576 2.3569966 -0.9271799
O 0.8838601 2.6467669 0.1740366
O 1.6296645 3.3004746 -1.8262581
C 2.5033114 -0.3726916 0.4463179
C 3.4557952 -1.3549270 0.1659271
C 4.5648936 -1.5343264 0.9873062
C 4.7333301 -0.7291801 2.1085694
C 3.7869382 0.2500795 2.3984680
C 2.6784564 0.4289082 1.5753657
C -2.3269461 -2.1666416 -3.3121997
H -5.5087613 1.8626037 2.0551156
H -5.5111142 0.3093087 2.9043352
H -4.3024397 1.5481343 3.3257707
H 0.0354867 0.6125204 0.9485774
H 1.2475261 -1.0979726 -1.1030720
H 2.4705605 0.9246057 -1.9889676
H 0.7404906 0.8428541 -2.2883117
H 1.4609005 4.1561037 -1.3973116
H 3.3277528 -1.9937633 -0.7064708
H 5.2944676 -2.3061118 0.7533394
H 5.5985797 -0.8612993 2.7537836
H 3.9052298 0.8791879 3.2777384
H 1.9650142 1.2149868 1.8081225
H -1.7183644 -3.0709944 -3.2231922
H -1.8827751 -1.5425026 -4.0935771
H -3.3468980 -2.4325228 -3.5946704
