34

C -1.3083693 -1.0472057 -0.5252313
N -0.0722810 -0.3995404 -0.0897402
C 1.0456305 -0.4984089 -1.0342336
C 2.3060602 0.0782389 -0.4310804
C 3.4104736 -0.7275846 -0.1586634
C 4.5624937 -0.1886750 0.4089890
C 4.6219067 1.1691246 0.7057570
C 3.5223556 1.9803257 0.4384515
C 2.3698185 1.4366116 -0.1188169
C -2.1741977 -1.3991689 0.7193043
O -1.3904334 -1.6786707 1.8523819
C -3.1088391 -0.1678079 0.9508906
O -2.8943760 0.3920916 2.2269166
C -2.7598351 0.8406703 -0.1804355
O -1.8021786 1.7584415 0.3165501
C -2.1571905 -0.0196243 -1.3024363
S -3.3802331 -0.7460749 -2.4280478
H -1.1050843 -1.9389106 -1.1355850
H 0.1829636 -0.8056936 0.8102126
H 1.2216414 -1.5387351 -1.3505172
H 0.7800312 0.0749481 -1.9332339
H 3.3683130 -1.7905875 -0.3911049
H 5.4148539 -0.8315992 0.6166718
H 5.5210403 1.5947138 1.1449161
H 3.5617264 3.0425418 0.6665804
H 1.5082995 2.0743504 -0.3176445
H -2.7824434 -2.2842056 0.4893928
H -1.6952901 -1.0409222 2.5250499
H -4.1594741 -0.4736656 0.8962076
H -2.4020291 1.2169435 2.0536877
H -3.6284627 1.4167677 -0.5072551
H -0.9399057 1.2891885 0.2845684
H -1.5159473 0.5943939 -1.9414929
H -4.1209381 -1.3820713 -1.5054094
