40

O 3.8711282 3.5652157 2.7587009
C 4.2371926 2.5165541 2.2629659
C 5.7092827 2.1862153 2.1335592
C 3.2381445 1.5248970 1.7617079
C 1.8792638 1.8380982 1.8552051
C 0.9242438 0.9509147 1.3908481
C 1.3053970 -0.2650919 0.8116200
C 2.6599412 -0.5938109 0.7260026
C 3.6067246 0.3017372 1.2010686
N 0.2916361 -1.1170154 0.3416500
C 0.4131331 -2.1951953 -0.5004550
O 1.4817828 -2.6833592 -0.8372809
C -0.8661683 -2.7845688 -0.9489976
C -1.0273585 -4.1576654 -1.2285213
N -2.2852087 -4.4689633 -1.4721167
N -2.9427291 -3.3062338 -1.3786241
C -2.1498296 -2.2442851 -1.0990788
C -2.6098833 -0.8469853 -1.1404712
C -1.7478339 0.1738171 -1.5468660
C -2.1473074 1.5013393 -1.5371035
Cl -1.0349153 2.7616972 -2.0104353
C -3.4372142 1.8580836 -1.1333371
O -3.8771144 3.1321187 -1.0849394
C -4.3225127 0.8450177 -0.7770935
C -3.9240207 -0.4808979 -0.8028358
O -4.8018747 -1.4804873 -0.4980875
H 5.9781629 2.0176390 1.0845781
H 6.2910496 3.0196781 2.5294076
H 5.9526086 1.2738736 2.6899552
H 1.5930808 2.7873744 2.2979241
H -0.1303332 1.2035347 1.4772632
H 2.9562072 -1.5354031 0.2859091
H 4.6573831 0.0307888 1.1232895
H -0.6522112 -0.8417437 0.5743377
H -0.2542554 -4.9151742 -1.2400789
H -3.9500594 -3.2839141 -1.4311017
H -0.7476474 -0.0595661 -1.8905804
H -3.1647105 3.7267716 -1.3636745
H -5.3349393 1.1258634 -0.4927164
H -5.6386259 -1.0807660 -0.2257980
