24

C -0.2890151 -0.6318327 -0.4936202
C -1.1325195 -1.5729411 0.3740978
O -2.2670728 -1.8905630 0.1206418
O -0.4586857 -2.0745350 1.4254405
C 0.8884228 0.0392888 0.2291139
C 2.0950445 -0.8915954 0.3686794
C 3.3014427 -0.2224765 0.9807584
O 3.9697578 -0.6546523 1.8872294
O 3.5959277 0.9468215 0.3688639
N -1.1664476 0.3245572 -1.1452672
C -1.9611793 1.1338898 -0.3798243
O -1.8258043 1.1975289 0.8316153
C -2.9784566 1.9620922 -1.1366379
H 0.1127932 -1.2619383 -1.2971820
H -1.0870451 -2.6518229 1.8899463
H 1.1798541 0.9065042 -0.3685838
H 0.5603714 0.4159187 1.2006958
H 2.4017298 -1.2393207 -0.6285228
H 1.8570141 -1.7714375 0.9653403
H 4.3882920 1.2861772 0.8168803
H -1.4861390 0.0970319 -2.0742892
H -3.8805442 2.0488651 -0.5267594
H -2.5809121 2.9701486 -1.2973401
H -3.2369286 1.5344929 -2.1110759
