36

C 3.8574663 1.8652662 -0.5256741
C 4.1725011 0.4634669 -0.9805960
C 2.7452705 0.9005459 -0.7912357
N 1.9288654 0.4164516 0.2875843
C 1.7015335 -1.0216344 0.3052404
C 0.6373119 -1.3859191 1.3430970
C -0.7651348 -0.7992608 1.0319016
N -0.7654789 0.5943120 1.4726508
C -1.2389458 -1.0528110 -0.4041647
C -2.7024910 -0.6766064 -0.6668181
C -2.9098019 0.7712960 -1.1208128
C -4.3775830 1.1099882 -1.3675667
O 0.5830666 -2.7935335 1.3638265
O 1.0291097 -0.9369877 2.6227124
H 4.0719284 2.1232635 0.5085651
H 4.0067694 2.6861260 -1.2222692
H 4.5994288 -0.2196046 -0.2490545
H 4.5290982 0.3185764 -1.9956971
H 2.1824109 1.0798908 -1.7061255
H 2.3171442 0.6846288 1.1872378
H 1.3909908 -1.3736871 -0.6821284
H 2.5999805 -1.5896146 0.5830684
H -1.4257844 -1.3555750 1.7117612
H -1.7075678 0.9662171 1.5367889
H -0.2364532 1.1649117 0.8152103
H -1.0815881 -2.1177343 -0.6155277
H -0.6024223 -0.4957254 -1.1066482
H -3.1041978 -1.3330394 -1.4503509
H -3.3079236 -0.8747740 0.2297462
H -2.4902919 1.4663149 -0.3825578
H -2.3374026 0.9354057 -2.0442852
H -4.4972529 2.1473657 -1.6980352
H -4.8070975 0.4599766 -2.1390773
H -4.9728885 0.9781014 -0.4561079
H 0.4120750 -3.0250407 2.2862554
H 0.5654598 -0.0808577 2.7261844
