66

C 0.8620830 -0.5325388 -1.2514298
C 0.3778170 -1.6454142 -2.2003255
C -0.8848019 -2.3305272 -1.7214218
C -0.9485220 -2.9505038 -0.4709343
C -2.1402063 -3.4749753 0.0147518
C -3.2943141 -3.4050075 -0.7657196
C -3.2289448 -2.8689530 -2.0502209
C -2.0401168 -2.3188736 -2.5080825
O -4.5116273 -3.8620254 -0.3419529
C -4.9454153 -3.5291446 0.9722743
C -5.5328179 -2.1242617 1.0912605
C -4.5454613 -0.9748803 0.9056112
C -3.5483917 -0.8742801 2.0563525
O -3.6745504 -1.5353585 3.0760813
N -2.5129844 0.0130322 1.9283511
C -2.0740296 0.7289710 0.7523778
C -0.6070625 0.3498550 0.4939224
O 0.1480659 0.0974341 1.4232879
N -0.2376019 0.2988936 -0.8101745
C -2.2142936 2.2468729 0.9166718
C -2.0935757 2.9714784 -0.4154291
O -2.0593277 2.3860239 -1.4918520
N -2.0329308 4.3240429 -0.3386166
C 1.9568301 0.3169484 -1.9000861
O 3.0151273 -0.4972277 -2.3847975
C 2.4939305 1.3791592 -0.9352536
N 3.6508385 2.0182160 -1.5501132
S 4.5503873 3.1089365 -0.6920028
O 5.6356574 3.5023645 -1.5717157
O 3.6244672 4.0732713 -0.1280738
C 5.2437566 2.1761586 0.6514575
C 6.3452283 1.3613679 0.4069047
C 6.8617797 0.5936369 1.4445690
C 6.2926282 0.6575534 2.7143726
C 5.2073627 1.4982524 2.9524930
C 4.6773055 2.2647748 1.9199660
H 1.2759886 -0.9856004 -0.3401046
H 1.1890147 -2.3720744 -2.3278789
H 0.1957411 -1.2120799 -3.1931235
H -0.0589190 -3.0180195 0.1542374
H -2.1707943 -3.9427170 0.9957928
H -4.1358156 -2.8491687 -2.6499574
H -2.0120583 -1.8662841 -3.4973948
H -4.1405441 -3.6582115 1.7049755
H -5.7235711 -4.2640209 1.1948336
H -5.9713204 -2.0414938 2.0923970
H -6.3433257 -2.0244169 0.3613011
H -4.0115426 -1.0760997 -0.0448928
H -5.0962511 -0.0252959 0.8463654
H -1.8153509 -0.0626043 2.6605372
H -2.6805003 0.4363197 -0.1075836
H -0.8862669 0.6751781 -1.4925822
H -3.2006895 2.4568645 1.3481999
H -1.4695197 2.6206271 1.6292025
H -2.1376548 4.8201409 0.5310040
H -2.0203471 4.8475234 -1.2003162
H 1.5477355 0.8180793 -2.7877538
H 3.3422569 -1.0247373 -1.6418222
H 1.7346172 2.1386702 -0.7302226
H 2.7549942 0.9140127 0.0311582
H 4.1987265 1.4163476 -2.1533947
H 6.7977125 1.3461699 -0.5810157
H 7.7143105 -0.0542592 1.2620565
H 6.6987768 0.0533534 3.5216982
H 4.7717851 1.5571540 3.9458019
H 3.8359227 2.9331674 2.0817731
