66

C 0.6899377 -0.9405736 -1.2375928
C 0.2936212 -2.2002826 -2.0323181
C -0.9619848 -2.8397418 -1.4815455
C -1.0450743 -3.2032393 -0.1344670
C -2.2498835 -3.6035818 0.4247233
C -3.3897024 -3.6891546 -0.3729832
C -3.3008585 -3.4343641 -1.7389882
C -2.1000314 -2.9896572 -2.2758632
O -4.6100443 -4.0272746 0.1455055
C -5.1173277 -3.2107847 1.1969963
C -5.6191727 -1.8452970 0.7298772
C -4.5528741 -0.7960363 0.4169088
C -3.8775300 -0.2580614 1.6748426
O -4.1724944 -0.6503041 2.7925352
N -2.9723164 0.7595510 1.5055177
C -2.1957886 1.0307624 0.3218872
C -0.9519257 0.1281650 0.2516181
O -0.4268799 -0.3324055 1.2513965
N -0.4441288 -0.0605719 -1.0034337
C -1.7667578 2.5147060 0.2844261
C -0.8855434 2.9127407 1.4630037
O -1.2182349 2.6779104 2.6179908
N 0.2551157 3.5867460 1.1744896
C 1.8178141 -0.1585120 -1.9126404
O 2.9345206 -0.9759993 -2.2250480
C 2.2482428 1.0306197 -1.0554592
N 3.2352070 1.8171626 -1.7832522
S 3.8919582 3.1423554 -1.0449913
O 2.7737023 3.8824090 -0.4827022
O 4.7987832 3.7389282 -2.0057586
C 4.8605036 2.5042296 0.2974802
C 4.3072158 2.4007102 1.5700444
C 5.0600844 1.8428420 2.5966976
C 6.3575154 1.4007122 2.3497695
C 6.9078884 1.5273240 1.0764472
C 6.1649270 2.0891247 0.0442444
H 1.0167676 -1.2414676 -0.2361881
H 0.1374092 -1.9303771 -3.0858481
H 1.1345766 -2.9029735 -2.0126453
H -0.1717891 -3.1358167 0.5106993
H -2.3152563 -3.8418302 1.4840579
H -4.1971646 -3.5345559 -2.3463764
H -2.0536719 -2.7342781 -3.3320975
H -5.9547752 -3.7857055 1.6030027
H -4.3770490 -3.0854276 1.9973592
H -6.2539530 -1.4406778 1.5272920
H -6.2465873 -2.0015007 -0.1544759
H -3.7915279 -1.1751708 -0.2748094
H -5.0320243 0.0506618 -0.0937351
H -2.5149088 1.0483211 2.3666744
H -2.8246524 0.8569434 -0.5619261
H -0.9894042 0.2243238 -1.8041199
H -2.6792159 3.1161089 0.3540235
H -1.2781420 2.7499100 -0.6687450
H 0.6746348 3.6655468 0.2580140
H 0.8337801 3.8382541 1.9618586
H 1.4570061 0.2149880 -2.8796815
H 3.3445470 -1.2494371 -1.3914814
H 2.6485141 0.6701569 -0.0921119
H 1.4004442 1.6797134 -0.8301248
H 3.9010188 1.2820320 -2.3278960
H 3.3013080 2.7656855 1.7511340
H 4.6336792 1.7518375 3.5911818
H 6.9444030 0.9625292 3.1527645
H 7.9225764 1.1889321 0.8873562
H 6.5903651 2.2216097 -0.9470130
