25

O -0.2645108 -2.7553186 -0.9992725
C -1.4000612 -2.2049894 -1.4942799
O -2.0349591 -2.7117772 -2.3785845
C -1.7456161 -0.9309992 -0.8071213
N -2.8573828 -0.3478370 -1.1751263
O -2.9673199 0.7652306 -0.3928827
C -1.9238694 0.8417229 0.4491045
C -1.0777237 -0.2061586 0.2321704
C 0.2930612 -0.3572119 0.8136482
C 1.3079441 0.4835404 0.0299714
N 1.2935430 0.0987274 -1.3684548
C 2.6637839 0.4725268 0.7300936
O 2.8245922 0.3501344 1.9199087
O 3.6931085 0.6813417 -0.1184172
C -1.8954145 2.0062136 1.3736253
H -0.1287382 -3.5756238 -1.5025849
H 0.5895437 -1.4086255 0.7868010
H 0.3068668 -0.0457883 1.8645661
H 0.9922776 1.5381694 0.0862557
H 1.4611040 -0.9006667 -1.4423793
H 2.0333798 0.5716727 -1.8748786
H 4.4949268 0.7007129 0.4307616
H -1.1748861 1.8411908 2.1784776
H -2.8809410 2.1733847 1.8139395
H -1.6028106 2.9206276 0.8444594
