41

C -6.3438409 -1.1767991 -0.1246063
N -5.9097665 0.1618670 0.2024283
C -6.8695487 1.1616530 0.6119144
C -4.5626067 0.4554104 0.2331005
C -3.5897668 -0.5044392 -0.1064974
C -2.2317855 -0.2225626 -0.0765926
C -1.7859635 1.0460640 0.2992351
C -2.7396153 2.0112155 0.6349914
C -4.0951356 1.7303480 0.6056293
N -0.4295120 1.4185210 0.3672402
C 0.6696051 0.6339065 0.0923592
O 0.6034095 -0.5193458 -0.2857076
N 1.8728698 1.3160083 0.2962870
C 3.1878999 0.8974895 0.0573114
O 4.0830977 1.7030081 0.1905323
C 3.4086153 -0.5467468 -0.3649944
C 4.8673336 -0.9289660 -0.4091836
C 5.3792567 -1.8797071 0.4718586
C 6.7170955 -2.2626703 0.4123226
C 7.5582695 -1.6923956 -0.5375574
C 7.0571042 -0.7370647 -1.4184515
C 5.7235368 -0.3513764 -1.3485564
H -6.0301111 -1.4636385 -1.1373753
H -7.4356156 -1.2283828 -0.0804139
H -5.9376467 -1.9192066 0.5769800
H -6.7173651 1.4718920 1.6555998
H -6.8075283 2.0588296 -0.0184896
H -7.8812980 0.7558911 0.5225153
H -3.8915675 -1.5045393 -0.3986641
H -1.5156454 -0.9888264 -0.3420348
H -2.4173370 3.0083971 0.9304583
H -4.7943344 2.5110627 0.8825179
H -0.2711853 2.3668348 0.6712799
H 1.8544682 2.2897741 0.5740904
H 2.8500123 -1.2022249 0.3084123
H 2.9473249 -0.6775071 -1.3516771
H 4.7220141 -2.3281853 1.2155967
H 7.0982836 -3.0086577 1.1054024
H 8.6026345 -1.9892920 -0.5923005
H 7.7107736 -0.2852195 -2.1601093
H 5.3436723 0.4193789 -2.0143508
