36

C 4.8823273 1.2380216 -0.1986430
C 4.8567997 -0.2578203 -0.0318693
C 3.8535672 0.6062917 0.6904410
N 2.4561683 0.6345644 0.3310000
C 1.8081528 -0.6716911 0.2304619
C 0.3068932 -0.5408831 0.5469939
C -0.4815970 0.0472194 -0.6549315
N -0.5846184 -0.8864203 -1.7673027
C -1.8748596 0.5417481 -0.2407263
C -2.9014319 -0.5508404 0.0605612
C -4.2919584 0.0026637 0.3918370
C -5.0087334 0.6446431 -0.7965910
O -0.2058715 -1.8315278 0.7985070
O 0.1528827 0.2190889 1.7214956
H 5.6884027 1.7995179 0.2659161
H 4.5533340 1.6478113 -1.1507469
H 5.6365844 -0.7247598 0.5622796
H 4.5062759 -0.8587198 -0.8678292
H 4.0229823 0.7196367 1.7597499
H 2.3164778 1.1991676 -0.5022080
H 1.9624721 -1.1690929 -0.7382361
H 2.2233760 -1.3156669 1.0081048
H 0.0552857 0.9387883 -1.0098737
H -0.6772492 -1.8269435 -1.3941708
H 0.2534036 -0.8666949 -2.3393341
H -1.7696779 1.2063121 0.6260351
H -2.2388755 1.1521658 -1.0756474
H -2.5396972 -1.1706921 0.8891044
H -2.9790065 -1.2167002 -0.8098759
H -4.9110907 -0.8175327 0.7763208
H -4.2095255 0.7309216 1.2104739
H -6.0137186 0.9794729 -0.5175481
H -4.4678105 1.5179776 -1.1775859
H -5.1132724 -0.0692092 -1.6223238
H -0.1173949 -1.9493376 1.7535353
H 0.8511024 0.8984262 1.6797220
