45

S 0.0546411 -0.3364134 0.0710180
C -1.0075638 -0.6795785 -1.2506561
C -0.8846518 -1.9802810 -1.6510131
C 0.0891654 -2.7069978 -0.9097506
C 0.7098867 -1.9402155 0.0322785
C 1.8125778 -2.3285666 0.9759027
O 2.2405358 -3.6679534 0.7737520
C 2.9763852 -1.3481687 0.9436987
C 3.6384240 -1.0254093 2.1291072
C 4.7292623 -0.1741686 2.1330484
C 5.1907669 0.3709246 0.9311711
O 6.2612549 1.2030296 1.0272040
C 6.7382761 1.7904457 -0.1634485
C 4.5504841 0.0469466 -0.2642848
C 3.4496216 -0.8061070 -0.2470463
C -1.8613139 0.4191535 -1.8387997
O -1.0897684 1.5086665 -2.3016172
C -2.9664665 0.8511980 -0.8880819
C -3.8752736 -0.0890981 -0.4162781
C -4.9213296 0.2750653 0.4261923
C -5.0593801 1.6075776 0.8129755
O -6.0389180 2.0712885 1.6329697
C -6.9721454 1.1350511 2.1256545
C -4.1499634 2.5612606 0.3451373
C -3.1214413 2.1824021 -0.4996639
H -1.4697387 -2.4062801 -2.4592615
H 0.3298044 -3.7545599 -1.0566990
H 1.4040717 -2.3268409 1.9961287
H 2.7783667 -3.6906134 -0.0300360
H 3.2865543 -1.4473266 3.0687127
H 5.2407484 0.0907643 3.0533709
H 7.0872714 1.0298722 -0.8746672
H 5.9664897 2.4047888 -0.6461747
H 7.5756342 2.4256271 0.1292545
H 4.8924412 0.4542531 -1.2090575
H 2.9407266 -1.0304404 -1.1835675
H -2.3397238 0.0003653 -2.7363276
H -0.4124371 1.6845188 -1.6307450
H -3.7743321 -1.1314643 -0.7111557
H -5.6186450 -0.4821792 0.7662880
H -7.5368316 0.6620256 1.3110490
H -6.4804229 0.3542344 2.7207272
H -7.6566490 1.6984431 2.7616495
H -4.2779834 3.5943433 0.6545811
H -2.4282110 2.9304193 -0.8763394
