66

C 0.7599932 1.1069890 0.4908305
C 1.3803386 0.2570400 -0.6414325
C 0.5717367 -0.9853380 -0.9492625
C 0.2186070 -1.8832205 0.0618473
C -0.7295702 -2.8724318 -0.1648165
C -1.3096462 -2.9943106 -1.4271823
C -0.8407161 -2.2231788 -2.4848576
C 0.0756672 -1.2100863 -2.2339005
O -2.3908544 -3.8119777 -1.6466558
C -3.5359067 -3.4581660 -0.8666055
C -3.9592411 -2.0018168 -1.0898541
C -4.9793789 -1.4789449 -0.0696471
C -4.4095533 -1.4750713 1.3416994
O -4.6530833 -2.3812080 2.1229863
N -3.5878671 -0.4475914 1.7199047
C -3.0123328 0.6452101 0.9680741
C -1.5045505 0.6632946 1.2952810
O -1.1082437 0.2067810 2.3618729
N -0.6822039 1.2015036 0.3663196
C -3.6639678 1.9826338 1.3562456
C -3.3437319 3.1046605 0.3796939
O -2.7634954 2.9201955 -0.6843574
N -3.7623429 4.3370845 0.7577969
C 1.3438622 2.5264259 0.5832864
O 0.9030035 3.3635501 -0.4732113
C 2.8694693 2.5474893 0.6699671
N 3.3373874 1.5564800 1.6399438
S 4.9772894 1.2182201 1.6556058
O 5.2201656 0.5843890 2.9409179
O 5.7237706 2.3967762 1.2405869
C 5.1195106 0.0043450 0.3747606
C 5.6577465 0.3608934 -0.8579745
C 5.7086326 -0.5913691 -1.8710910
C 5.2321497 -1.8819116 -1.6458959
C 4.7077930 -2.2262424 -0.4004606
C 4.6516434 -1.2821212 0.6204977
H 0.9310045 0.5908136 1.4406337
H 1.4662414 0.8640113 -1.5528015
H 2.4003751 -0.0186900 -0.3444593
H 0.6371069 -1.7808245 1.0619464
H -1.0501522 -3.5278014 0.6421996
H -1.2629349 -2.3731632 -3.4759362
H 0.3892797 -0.5661909 -3.0521426
H -4.3216073 -4.1516304 -1.1833634
H -3.3406605 -3.6485011 0.1971933
H -4.3616278 -1.8942998 -2.1037364
H -3.0675620 -1.3665528 -1.0400289
H -5.3154044 -0.4742386 -0.3549384
H -5.8597032 -2.1283560 -0.0380887
H -3.1678353 -0.5814273 2.6335213
H -3.1573903 0.4956410 -0.1060305
H -1.0770396 1.7381157 -0.3975472
H -4.7522421 1.8418998 1.3844588
H -3.3591034 2.2606945 2.3725400
H -3.5857989 5.1125051 0.1372268
H -4.2461680 4.5037352 1.6250146
H 0.9234972 2.9733957 1.4936337
H 1.3954030 3.1302949 -1.2726757
H 3.2937242 2.2951073 -0.3083732
H 3.2186648 3.5546418 0.9260706
H 3.0459860 1.7151835 2.6014146
H 6.0299496 1.3709513 -1.0096266
H 6.1211965 -0.3256648 -2.8408921
H 5.2678130 -2.6222184 -2.4417841
H 4.3425444 -3.2345374 -0.2251196
H 4.2403629 -1.5318687 1.5958790
