41

C -6.3077847 1.5944324 -0.0281252
N -5.5346892 0.6663563 0.7634889
C -6.1365294 -0.0166851 1.8850642
C -4.2371219 0.3750179 0.3998083
C -3.6259200 1.0016398 -0.7034792
C -2.3113937 0.7425331 -1.0612816
C -1.5558884 -0.1747745 -0.3325272
C -2.1518858 -0.8217473 0.7514318
C -3.4611069 -0.5552405 1.1178684
N -0.2263646 -0.5055188 -0.6419263
C 0.6191718 0.2126550 -1.4306505
O 0.3624914 1.2384908 -2.0321951
N 1.9222116 -0.3284458 -1.5379264
C 2.4565217 -1.4411772 -0.9359339
O 1.8327411 -2.1548549 -0.1620767
C 3.9165524 -1.6849960 -1.2644713
C 4.8104295 -0.7756366 -0.4437685
C 4.6847817 -0.7612590 0.9463062
C 5.5135851 0.0413939 1.7224028
C 6.4698590 0.8511897 1.1140940
C 6.5954064 0.8486479 -0.2715225
C 5.7673718 0.0382565 -1.0456062
H -5.8270428 2.5804826 -0.0710388
H -6.4410606 1.2404118 -1.0599752
H -7.2973400 1.7205397 0.4191291
H -6.2088263 -1.1006722 1.7159046
H -5.5606735 0.1433518 2.8063532
H -7.1466033 0.3700656 2.0475802
H -4.1801251 1.7148216 -1.3029062
H -1.8671136 1.2574898 -1.9041337
H -1.5720744 -1.5419911 1.3275494
H -3.8798501 -1.0841342 1.9663191
H 0.1824310 -1.3164732 -0.1821456
H 2.5280593 0.2460814 -2.1048518
H 4.1120359 -2.7374847 -1.0351524
H 4.0920645 -1.5324843 -2.3356866
H 3.9246632 -1.3880598 1.4098670
H 5.4117524 0.0388081 2.8048356
H 7.1144159 1.4828727 1.7210017
H 7.3409419 1.4781889 -0.7522585
H 5.8717965 0.0376001 -2.1291596
