57

C -2.0861822 -1.3892728 0.4235501
C -2.9866057 -1.1062119 -0.7971406
C -3.0163775 -2.3629558 -1.6905550
O -2.0743366 -2.8761948 -2.2628074
N -4.3001097 -2.8156686 -1.7217693
C -5.2525670 -1.9111590 -1.1284258
N -4.4033947 -0.9644596 -0.4233540
C -4.9860826 0.1059307 0.2517538
C -4.2383084 1.0970550 0.9124179
C -4.8654986 2.1277841 1.6022715
C -6.2512561 2.2221286 1.6531189
C -7.0050252 1.2537348 1.0021611
C -6.3897596 0.2125837 0.3180114
C -2.4518681 0.0813974 -1.6276516
C -0.9487892 -0.0180167 -1.8719295
N -0.2240595 -0.1497811 -0.6093482
C 1.2136299 -0.0493796 -0.8216538
C 1.9868010 0.2441005 0.4635864
C 3.4286174 0.5714351 0.1796100
C 4.4766502 0.3564265 0.9837551
C 5.8575860 0.6892118 0.5237871
C 6.8162921 1.1789923 1.4163438
C 8.0974002 1.5115913 0.9941827
C 8.4242326 1.3299606 -0.3399903
C 7.5102217 0.8309094 -1.2559971
C 6.2297240 0.5215225 -0.8179872
F 9.6630035 1.6411321 -0.7573197
C 4.3336274 -0.2012753 2.3782709
C -0.6021779 -1.3966217 0.0570150
H -2.3716429 -2.3518648 0.8617723
H -2.2615863 -0.6305224 1.1900592
H -4.5570546 -3.5070381 -2.4063078
H -5.8621213 -1.3954399 -1.8891330
H -5.9145845 -2.4352464 -0.4265829
H -3.1557146 1.0864672 0.8878625
H -4.2541821 2.8740646 2.1022946
H -6.7337286 3.0344561 2.1881002
H -8.0921903 1.3039198 1.0212176
H -7.0161945 -0.5224045 -0.1733758
H -2.6552237 1.0183155 -1.1044552
H -2.9921385 0.1230993 -2.5791457
H -0.7277074 -0.8562111 -2.5536123
H -0.6130105 0.9047490 -2.3605006
H 1.3908179 0.7826611 -1.5129988
H 1.6203909 -0.9604215 -1.3062288
H 1.9110733 -0.6062391 1.1509972
H 1.4930672 1.0924319 0.9577459
H 3.6035888 1.0944851 -0.7634031
H 6.5550982 1.3135032 2.4628435
H 8.8417161 1.8981569 1.6832119
H 7.8048817 0.6998090 -2.2929414
H 5.5103774 0.1174233 -1.5260670
H 3.3727984 -0.7002563 2.5284088
H 5.1266348 -0.9285516 2.5763205
H 4.4142641 0.5884308 3.1364305
H -0.0136804 -1.5012546 0.9743887
H -0.3798368 -2.2712214 -0.5784076
