61

N 8.4105611 -1.1599320 -2.7736193
C 7.9606525 0.0929875 -2.6784517
C 6.8824420 0.4942309 -1.9048599
C 6.1944399 -0.4670224 -1.1426839
C 6.6614742 -1.7906442 -1.2346731
C 7.7476207 -2.0653592 -2.0514952
N 5.1285379 -0.1307339 -0.3505740
C 4.6756446 -1.0113394 0.7120681
C 4.0261125 -0.2064177 1.8363125
C 2.7843260 0.5574310 1.3476030
C 2.9218824 0.9177176 -0.1495991
C 4.3800421 1.0956224 -0.5694903
C 1.5274625 -0.2952031 1.5484511
O 1.6063678 -1.5129007 1.6303293
N 0.3142400 0.3435240 1.6107466
C -0.9008603 -0.4627457 1.7221757
C -1.7191428 -0.3342902 0.4350815
N -1.9955874 1.0638315 0.0856655
C -0.7700344 1.8732359 0.0283795
C 0.0517711 1.7476211 1.3163661
S -3.2671235 1.8149821 0.9071061
O -3.0581932 1.7462595 2.3503849
O -3.4535627 3.1078550 0.2659174
C -4.6377229 0.7655158 0.5088683
C -5.0571408 0.6910826 -0.7914415
C -6.1606575 -0.1411891 -1.1249835
C -6.8172357 -0.8702218 -0.1007635
C -6.3444716 -0.7623928 1.2379433
C -5.2774571 0.0403560 1.5415048
C -7.9317167 -1.6878695 -0.4332130
C -8.3551889 -1.7641819 -1.7310048
C -7.7050514 -1.0481454 -2.7660286
C -6.6312122 -0.2572068 -2.4588691
Cl -9.7260761 -2.7583818 -2.1419374
H 8.4963309 0.8363092 -3.2686002
H 6.5982709 1.5417048 -1.8772603
H 6.1745495 -2.5986401 -0.6975220
H 8.1129068 -3.0899253 -2.1224350
H 3.9670410 -1.7621579 0.3324608
H 5.5410755 -1.5503980 1.1106784
H 3.7536827 -0.8821607 2.6514960
H 4.7622885 0.5028139 2.2338475
H 2.6970122 1.4726053 1.9440226
H 2.4780693 0.1165291 -0.7537946
H 2.3721732 1.8346666 -0.3844363
H 4.8344195 1.9361358 -0.0209302
H 4.4205398 1.3450599 -1.6345470
H -1.4965167 -0.0877498 2.5615952
H -0.6073295 -1.4963804 1.9071643
H -1.1553085 -0.7549321 -0.4061655
H -2.6624522 -0.8864920 0.5054173
H -0.1922142 1.5068599 -0.8294940
H -1.0540043 2.9104631 -0.1673404
H -0.5373821 2.1655332 2.1413073
H 0.9787660 2.3159852 1.2466680
H -4.5630346 1.2707344 -1.5663873
H -6.8474548 -1.3264075 2.0180983
H -4.9065057 0.1380106 2.5573782
H -8.4414248 -2.2453984 0.3480152
H -8.0681818 -1.1389500 -3.7848844
H -6.1208585 0.3000079 -3.2423663
