57

C -2.4390345 -0.2825508 -1.5922847
C -2.6238204 -1.2319898 -0.3762480
C -2.4090220 -2.6726291 -0.8622414
O -1.3576931 -3.1623659 -1.2281400
N -3.6246190 -3.2863654 -0.8516835
C -4.7120000 -2.4144403 -0.4705499
N -4.0141696 -1.2880427 0.1264655
C -4.7459179 -0.1046702 0.4015955
C -4.6294287 0.5019586 1.6566131
C -5.3517928 1.6514303 1.9629347
C -6.1996325 2.2222839 1.0195173
C -6.3115185 1.6358994 -0.2371946
C -5.5929946 0.4860196 -0.5491056
C -1.6034624 -0.8761767 0.7204138
C -1.2057163 0.6021074 0.6538074
N -0.5808623 0.9602258 -0.6167865
C 0.8287539 1.2875134 -0.5677700
C 1.7754180 0.1572351 -0.1465139
C 3.2107223 0.6114675 -0.0902232
C 4.2445716 -0.1565161 0.2690992
C 5.6377469 0.3719051 0.2400102
C 6.5932575 -0.0807619 1.1554610
C 7.8867831 0.4247828 1.1630092
C 8.2295823 1.3831691 0.2236137
C 7.3201926 1.8451207 -0.7160410
C 6.0277216 1.3402362 -0.6975099
F 9.4793904 1.8760864 0.2180981
C 4.0496694 -1.5764422 0.7464519
C -0.9745835 0.1173026 -1.7390288
H -3.0349283 0.6277308 -1.4551663
H -2.7981373 -0.7749090 -2.5027543
H -3.7460056 -4.1660276 -1.3254289
H -5.3787872 -2.8947953 0.2573398
H -5.3147692 -2.1026126 -1.3425126
H -3.9631750 0.0624013 2.3951398
H -5.2470256 2.0970275 2.9483058
H -6.7650775 3.1185906 1.2599038
H -6.9639809 2.0755641 -0.9872142
H -5.6640007 0.0640948 -1.5504812
H -2.0145443 -1.1290806 1.7011709
H -0.7071220 -1.4909136 0.5674742
H -0.5270275 0.8567810 1.4750793
H -2.1029017 1.2240859 0.8027894
H 0.9620788 2.1328414 0.1216815
H 1.1244546 1.6476249 -1.5611184
H 1.6685019 -0.6864375 -0.8468324
H 1.4627525 -0.2319544 0.8347819
H 3.3930966 1.6610145 -0.3328458
H 6.3186313 -0.8372184 1.8856454
H 8.6278147 0.0813262 1.8776179
H 7.6275270 2.5951012 -1.4383614
H 5.3150071 1.6883538 -1.4413302
H 3.0780347 -1.9795625 0.4451148
H 4.1096028 -1.6432982 1.8406878
H 4.8292805 -2.2259462 0.3368025
H -0.3623198 -0.7987410 -1.8330132
H -0.8346177 0.6877697 -2.6660406
