39

N -2.8430851 1.3401777 -1.3214861
C -1.5478805 1.1427319 -1.6098746
N -0.6336090 0.5076833 -0.8540017
C -1.0363498 -0.0669216 0.2805367
C -2.3728890 0.0816297 0.6858693
C -3.1881330 0.7951487 -0.1652103
O -4.4263654 0.8265591 0.3995026
C -4.2800611 0.1175277 1.5744546
N -3.0968282 -0.3458451 1.7965940
C -5.4981813 -0.0125623 2.4154692
N -0.1628552 -0.7646076 1.0455631
C 1.0936759 -1.3506815 0.5982511
C 0.9827524 -2.1411786 -0.7340635
C 0.9545294 -1.4086568 -2.0770254
O 0.0950042 -1.5795777 -2.9003708
O 2.0142825 -0.6224964 -2.3587908
C 2.2912205 -0.4046892 0.6561832
C 3.5541206 -0.9713772 0.8597286
C 4.6975856 -0.1807693 0.9005690
C 4.5898019 1.1984254 0.7458511
C 3.3375548 1.7712088 0.5485657
C 2.1916171 0.9789235 0.5063517
C -1.0454009 1.6935571 -2.9134949
H -5.8600797 0.9742847 2.7209685
H -5.2722885 -0.5995764 3.3070329
H -6.2974995 -0.5075069 1.8554753
H -0.5645884 -1.1309011 1.8988288
H 1.3023776 -2.1190727 1.3493225
H 0.0796321 -2.7533748 -0.6965473
H 1.8377823 -2.8323191 -0.7833644
H 2.5923988 -0.5278473 -1.5856507
H 3.6427713 -2.0501278 0.9836193
H 5.6687862 -0.6424786 1.0559934
H 5.4787044 1.8223462 0.7775650
H 3.2458152 2.8460792 0.4198847
H 1.2226387 1.4342798 0.3261075
H -0.6447379 0.8819200 -3.5295839
H -0.2381540 2.4115707 -2.7371447
H -1.8638701 2.1887173 -3.4415802
