36

C 4.2628892 1.5366184 -0.7000638
C 5.1613676 0.9215720 0.3404869
C 3.7070612 1.1174969 0.6370361
N 2.8399913 -0.0143127 0.7900666
C 1.5796632 0.0794272 0.0647881
C 0.7320544 -1.1161314 0.4877996
C -0.6327761 -1.2030318 -0.2165902
N -1.1757638 -2.5007490 0.1896782
C -1.5413455 -0.0005963 0.0554911
C -2.9066978 -0.1235035 -0.6172070
C -3.7921255 1.1021261 -0.4019120
C -5.1570864 0.9631001 -1.0682342
O 0.4890837 -1.0220832 1.8784378
O 1.4683498 -2.2774261 0.1742416
H 4.0124192 0.9361519 -1.5726309
H 4.3537494 2.6006381 -0.8970902
H 5.5086917 -0.0939366 0.1674305
H 5.8875481 1.5524858 0.8457230
H 3.4687902 1.9284969 1.3236227
H 3.3096022 -0.8771222 0.5303360
H 1.0693065 1.0040907 0.3526798
H 1.7135274 0.0872186 -1.0290057
H -0.4322666 -1.2558911 -1.2963619
H -1.9561417 -2.7793723 -0.3961956
H -1.5058689 -2.4387401 1.1504239
H -1.0488860 0.9097348 -0.3125563
H -1.6674146 0.1252790 1.1393760
H -2.7722143 -0.2905481 -1.6967080
H -3.4285495 -1.0111869 -0.2331528
H -3.9213124 1.2681536 0.6761763
H -3.2804639 1.9920960 -0.7918043
H -5.7759837 1.8520608 -0.9117189
H -5.7036180 0.1015976 -0.6685965
H -5.0507272 0.8139909 -2.1486830
H 1.3716065 -0.8971343 2.2652174
H 0.8132395 -2.9909685 0.2968015
