34

C -0.7904330 -0.2468173 -0.2675057
N -0.3700353 0.6287706 0.8367111
C 0.8818852 0.2303626 1.5053413
C 2.1299907 0.2585075 0.6392092
C 2.8219744 -0.9177595 0.3451719
C 3.9560890 -0.8933586 -0.4632634
C 4.4142328 0.3116225 -0.9857946
C 3.7352874 1.4911890 -0.6930999
C 2.6023268 1.4636355 0.1129663
C -1.6610575 -1.4012273 0.2752217
O -1.1333547 -2.1191035 1.3593741
C -2.9796727 -0.6888931 0.6041050
O -2.8622963 -0.0204510 1.8505776
C -3.1820456 0.3347370 -0.5481856
O -3.7084499 1.5513820 -0.0877839
C -1.7726247 0.5032795 -1.1972095
S -1.6769852 -0.0262863 -2.9371046
H 0.0804744 -0.6244664 -0.8149949
H -0.2841584 1.5863845 0.5041970
H 0.9949676 0.9001027 2.3661773
H 0.7330108 -0.7751631 1.9053034
H 2.4641474 -1.8637526 0.7497805
H 4.4817378 -1.8192462 -0.6843628
H 5.2992298 0.3324670 -1.6168283
H 4.0888306 2.4382757 -1.0939283
H 2.0802296 2.3917376 0.3435233
H -1.8163769 -2.1258031 -0.5329930
H -1.4797687 -1.6892783 2.1566841
H -3.8256485 -1.3743359 0.7024565
H -1.9889879 0.4330473 1.8304163
H -3.8782959 -0.0722477 -1.2922577
H -3.6780020 1.5061933 0.8819256
H -1.5310974 1.5710534 -1.2337760
H -2.1450239 -1.2745584 -2.7645544
