25

O -0.8194931 -3.2984953 -1.7400815
C -0.3109819 -2.5463927 -0.7646939
O 0.6659223 -2.8695524 -0.1376267
C -1.0572673 -1.2706378 -0.5104224
N -2.1314782 -1.0115758 -1.2109807
O -2.5798096 0.2034747 -0.7739546
C -1.7698097 0.6613951 0.1978667
C -0.7621914 -0.2319376 0.4201814
C 0.4349827 -0.0732276 1.3045430
C 1.5929033 0.6683259 0.6023700
N 1.1595888 1.9944065 0.1863724
C 2.0576840 -0.1952077 -0.5625555
O 1.6070443 -0.1112065 -1.6820730
O 2.9946869 -1.0820055 -0.2015933
C -2.0910802 1.9948210 0.7704832
H -1.6052523 -2.8592623 -2.1095801
H 0.1660441 0.5141527 2.1891988
H 0.7831608 -1.0530433 1.6428576
H 2.4194815 0.7599391 1.3120192
H 0.6690965 1.8950048 -0.7004657
H 1.9739933 2.5665122 -0.0194864
H 3.1049994 -1.6939998 -0.9479330
H -1.8933689 2.7839767 0.0365038
H -3.1434143 2.0606808 1.0559342
H -1.4652377 2.1938503 1.6435183
