66

C 0.7505301 -0.5229913 -0.5086523
C 0.5547182 -1.5346535 -1.6627774
C -0.6195642 -2.4527046 -1.4141468
C -1.6899238 -2.4942030 -2.3083502
C -2.8757673 -3.1366008 -1.9741507
C -3.0164396 -3.6809923 -0.7042337
C -1.9205306 -3.7632845 0.1515344
C -0.7187055 -3.1765390 -0.2236807
O -4.2690995 -4.0555411 -0.2779618
C -4.8004800 -3.1380524 0.6808465
C -4.9344338 -1.7212943 0.1126443
C -5.1584464 -0.6530821 1.1844609
C -3.9229323 -0.4366111 2.0414718
O -3.8542664 -0.8760469 3.1767327
N -2.8358319 0.2304663 1.5106433
C -2.7213303 0.9929290 0.2762816
C -1.4507849 0.6716046 -0.5295774
O -1.3176780 1.1833849 -1.6452442
N -0.5200534 -0.0808369 0.0853449
C -2.7200969 2.5124070 0.5072089
C -4.0660055 3.0687816 0.9445328
O -5.1299290 2.5040341 0.7431514
N -4.0035269 4.2784631 1.5616841
C 1.6407251 0.6757644 -0.9069687
O 1.3234422 1.2202222 -2.1656034
C 3.1159079 0.2870795 -0.9679913
N 3.8908325 1.4690184 -1.3329252
S 5.5098147 1.2550917 -1.6642974
O 5.7202167 -0.0959911 -2.1607747
O 5.9025464 2.4198358 -2.4378969
C 6.2580665 1.3627145 -0.0649579
C 6.4206111 0.2065026 0.6923977
C 7.0007960 0.3025668 1.9529214
C 7.4198922 1.5401308 2.4368745
C 7.2623346 2.6864011 1.6611285
C 6.6824249 2.6029111 0.3990687
H 1.2567603 -1.0298543 0.3196980
H 1.4794339 -2.1180981 -1.7789000
H 0.4023574 -0.9803843 -2.5937173
H -1.6101470 -1.9798706 -3.2625268
H -3.7324429 -3.1323734 -2.6435763
H -2.0282439 -4.2523996 1.1155254
H 0.1259255 -3.2219615 0.4625156
H -5.7776238 -3.5481316 0.9592734
H -4.1701482 -3.1350116 1.5814941
H -5.7540001 -1.7051574 -0.6155386
H -4.0194567 -1.4699691 -0.4371380
H -5.9471817 -0.9618154 1.8775162
H -5.4615201 0.2950199 0.7309443
H -2.1811714 0.4714668 2.2467785
H -3.5668791 0.7578853 -0.3719485
H -0.8670300 -0.6373606 0.8567930
H -2.4454935 2.9977076 -0.4358111
H -1.9404875 2.7786842 1.2326993
H -3.1537059 4.8169971 1.5928688
H -4.8737488 4.7421899 1.7717452
H 1.5140734 1.4430991 -0.1249679
H 0.3556602 1.3787988 -2.1610346
H 3.2738903 -0.5161971 -1.7002624
H 3.4624200 -0.0730926 0.0074433
H 3.4648014 2.0344740 -2.0638071
H 6.1158826 -0.7548860 0.2870150
H 7.1309562 -0.5908899 2.5568342
H 7.8736518 1.6115709 3.4223904
H 7.5959164 3.6493363 2.0377767
H 6.5705178 3.4795379 -0.2334209
