45

S -0.0003487 -0.5453218 0.3149721
C -1.0485139 -1.3348139 1.4426322
C -0.8017221 -2.6744883 1.5021359
C 0.2542782 -3.0702103 0.6331137
C 0.7980391 -2.0291770 -0.0656419
C 1.9028554 -2.1186467 -1.0863308
O 1.3202182 -2.0263145 -2.3742110
C 2.9887662 -1.0804944 -0.8670504
C 3.8901890 -1.2453364 0.1769045
C 4.8828102 -0.2999946 0.4283572
C 4.9728275 0.8304425 -0.3840564
O 5.8925744 1.8189340 -0.2281072
C 6.7890836 1.7113783 0.8554680
C 4.0774892 0.9978932 -1.4457971
C 3.0991876 0.0475924 -1.6816636
C -2.0240850 -0.5470145 2.2687503
O -2.7388107 -1.4744685 3.0687509
C -2.9524709 0.3076639 1.4210468
C -2.8121799 1.6955978 1.4021615
C -3.6467740 2.4858239 0.6301288
C -4.6501579 1.8899636 -0.1400162
O -5.4148072 2.7421019 -0.8726706
C -6.4414868 2.1827128 -1.6612446
C -4.8130655 0.5049727 -0.1167468
C -3.9631184 -0.2744815 0.6641001
H -1.3664649 -3.3346401 2.1516174
H 0.6002158 -4.0939844 0.5291101
H 2.3563698 -3.1174047 -0.9494166
H 2.0038847 -2.2658177 -3.0149889
H 3.8211053 -2.1277183 0.8109359
H 5.5741860 -0.4572603 1.2494797
H 6.2568603 1.6778908 1.8153703
H 7.4237423 0.8199099 0.7647349
H 7.4127089 2.6056967 0.8181692
H 4.1772417 1.8808648 -2.0701283
H 2.4035434 0.1730078 -2.5090717
H -1.4446661 0.1419575 2.9099988
H -3.3587386 -0.9680781 3.6115169
H -2.0373093 2.1667792 2.0050198
H -3.5465338 3.5662977 0.6024516
H -6.9099644 3.0195175 -2.1808089
H -6.0424585 1.4744948 -2.3994541
H -7.1904717 1.6718635 -1.0415478
H -5.5952574 0.0255720 -0.6960316
H -4.0987666 -1.3533648 0.6857600
