36

C 5.0551393 0.1571633 -0.4283022
C 4.6494896 -0.0215973 1.0094593
C 3.6421362 -0.1981458 -0.0860870
N 2.6688194 0.8445788 -0.2263751
C 1.6165024 0.8044173 0.7686204
C 0.4241845 -0.1261812 0.5009706
C -0.3113254 0.2121733 -0.8135896
N 0.5678501 -0.1260455 -1.9297722
C -1.6969800 -0.4627775 -0.8731044
C -2.8345230 0.3569811 -0.2578263
C -4.1510076 -0.4148943 -0.1815011
C -5.2852119 0.4133051 0.4167764
O -0.4149181 0.0355269 1.6297870
O 0.8315925 -1.4865039 0.4118717
H 5.6838376 -0.5980494 -0.8920649
H 5.2286098 1.1732069 -0.7690836
H 4.5441643 0.8805091 1.6072310
H 4.9955460 -0.8993033 1.5494691
H 3.3075955 -1.2170729 -0.3004705
H 2.2633376 0.8118628 -1.1599002
H 1.2172570 1.8161138 0.9234758
H 2.0428776 0.4806644 1.7222825
H -0.4578555 1.3002587 -0.8326588
H 0.1398157 0.1573282 -2.8070914
H 0.6838275 -1.1352894 -1.9678144
H -1.6345068 -1.4604573 -0.4179530
H -1.9423303 -0.6409123 -1.9312279
H -2.9816466 1.2663840 -0.8584138
H -2.5546612 0.7063166 0.7435474
H -4.0023912 -1.3211009 0.4215559
H -4.4309012 -0.7572091 -1.1868361
H -5.4837021 1.3060043 -0.1877084
H -6.2142902 -0.1627619 0.4778611
H -5.0327675 0.7502064 1.4290513
H -1.0905701 -0.6555166 1.5787721
H 0.9569064 -1.7893814 1.3242479
