44

Cl 0.0655948 -5.0987342 -0.8683635
C -0.7088704 -3.5437070 -0.8064943
C -0.4823231 -2.6917218 0.2601064
N -1.0253841 -1.4774628 0.3381713
C -1.8257095 -1.0694343 -0.6462865
N -2.3033742 0.2466919 -0.5090383
C -3.3188801 0.8536873 -1.2651082
O -3.9257933 0.3575353 -2.1866405
C -3.4796722 2.2045792 -0.6745238
N -4.3545538 3.1433044 -1.0302469
C -4.2908775 4.2399427 -0.2882260
C -3.3897811 4.3905492 0.7777291
N -2.5190032 3.4395479 1.1148451
C -2.5783153 2.3563134 0.3594101
C -1.7345999 1.1301810 0.5082908
O -0.3600809 1.3534783 0.1751352
C 0.5396015 1.2101428 1.1855338
O 0.2615641 1.3156580 2.3601928
N 1.7831414 0.9376881 0.6959772
C 1.9500921 0.4365410 -0.6745298
C 3.3789842 -0.0830858 -0.8413573
N 3.7518670 -1.0947297 0.1414634
C 3.2887381 -0.8092693 1.5011218
C 2.8395289 0.6399704 1.6584739
C 3.4246162 -2.4465042 -0.2729875
C -2.1391194 -1.8774933 -1.7517951
C -1.5590180 -3.1319747 -1.8272131
H 0.1710090 -2.9894959 1.0786894
H -4.9852122 5.0392983 -0.5384303
H -3.3797065 5.3017213 1.3705625
H -1.7777035 0.6980725 1.5139350
H 1.2278234 -0.3688361 -0.8689410
H 1.7575798 1.2460283 -1.3865605
H 4.0704887 0.7686005 -0.7710132
H 3.5117566 -0.5094757 -1.8417651
H 2.4334740 -1.4562992 1.7662761
H 4.0918888 -1.0404586 2.2149691
H 3.6843265 1.3270596 1.5196473
H 2.4271029 0.8121264 2.6527263
H 3.7313599 -3.1515702 0.5063985
H 3.9749885 -2.6993083 -1.1859289
H 2.3487504 -2.6047427 -0.4695814
H -2.8119106 -1.5183353 -2.5176784
H -1.7646875 -3.7857817 -2.6699463
