57

C -2.0138748 -0.4713181 -0.9668167
C -2.8498801 -1.3122321 0.0249767
C -2.7218500 -2.7938199 -0.3790900
O -1.7263197 -3.4868137 -0.3051250
N -3.9350651 -3.1895713 -0.8483466
C -4.9174892 -2.1387436 -0.9053456
N -4.2979595 -1.0828418 -0.1189290
C -4.9293103 0.1572030 -0.0311578
C -4.3507651 1.2456176 0.6436414
C -5.0132999 2.4634293 0.7403163
C -6.2674139 2.6436730 0.1692509
C -6.8541975 1.5741122 -0.4951968
C -6.2063014 0.3482089 -0.5905166
C -2.3395676 -1.1313618 1.4724470
C -1.0671724 -0.2837090 1.5244980
N -0.0907417 -0.8166496 0.5903528
C 1.2492912 -0.3051005 0.8137648
C 2.3047522 -1.1545830 0.0997168
C 3.7057747 -0.6578612 0.3329610
C 4.2522243 0.3973288 -0.2778184
C 5.6888252 0.7262514 -0.0732223
C 6.1400983 2.0500470 -0.0972018
C 7.4781577 2.3620781 0.1071554
C 8.3756022 1.3280581 0.3191652
C 7.9736812 0.0008038 0.3345825
C 6.6301866 -0.2900206 0.1455744
F 9.6733603 1.6174643 0.5122037
C 3.4440663 1.3145602 -1.1747812
C -0.5129293 -0.7181176 -0.8112250
H -2.3205087 -0.7031048 -1.9919800
H -2.2267304 0.5923794 -0.8126120
H -4.0328573 -4.0791848 -1.3059010
H -5.1107137 -1.8022456 -1.9391196
H -5.8626247 -2.4525606 -0.4461596
H -3.3679152 1.1530806 1.0927032
H -4.5326955 3.2818870 1.2690035
H -6.7761977 3.6005118 0.2427921
H -7.8352604 1.6904395 -0.9514539
H -6.7042127 -0.4629105 -1.1092848
H -2.0997735 -2.1148434 1.8888475
H -3.1251935 -0.7005557 2.1013311
H -0.6401095 -0.3458797 2.5312687
H -1.2881294 0.7869409 1.3411469
H 1.4441009 -0.3366752 1.8933851
H 1.3372373 0.7567321 0.5130344
H 2.0888555 -1.1733323 -0.9784131
H 2.2085915 -2.1844839 0.4577588
H 4.2675616 -1.1510393 1.1288725
H 5.4296771 2.8549787 -0.2667116
H 7.8326397 3.3879201 0.0965531
H 8.7067856 -0.7819843 0.5024616
H 6.3071160 -1.3279269 0.1402670
H 4.0680229 1.7299532 -1.9703013
H 2.6147260 0.7736903 -1.6411249
H 3.0135049 2.1519606 -0.6089920
H -0.2357585 -1.6445137 -1.3298930
H 0.0174797 0.1050758 -1.3210078
