44

Cl -0.8177010 -5.4149638 -0.9067720
C -1.3194712 -3.7547917 -0.8795904
C -1.0060281 -2.9477960 0.2006296
N -1.3751058 -1.6697808 0.2699290
C -2.0863476 -1.1470272 -0.7277241
N -2.4403677 0.2068810 -0.5637856
C -3.3589337 0.9293974 -1.3444429
O -3.9756428 0.5128059 -2.2983741
C -3.3986029 2.2830116 -0.7388394
N -4.1336292 3.3229599 -1.1284849
C -3.9633125 4.4046078 -0.3813816
C -3.0917201 4.4459776 0.7185062
N -2.3631098 3.3939521 1.0908965
C -2.5328866 2.3236956 0.3341783
C -1.8439719 1.0096226 0.5057762
O -0.4432443 1.1137884 0.2503924
C 0.3888752 0.8359342 1.2895008
O 0.0669792 0.9109318 2.4546050
N 1.6230555 0.4659518 0.8413560
C 1.8115710 0.0299500 -0.5428969
C 3.2895203 0.1603024 -0.9185780
N 4.1989931 -0.4820857 0.0182513
C 3.9747524 0.0321244 1.3617505
C 2.5265588 -0.1002733 1.8377875
C 4.1905203 -1.9311008 -0.0671351
C -2.4434201 -1.8854615 -1.8678474
C -2.0469276 -3.2103723 -1.9320987
H -0.4374973 -3.3445110 1.0396548
H -4.5414889 5.2841992 -0.6555201
H -2.9876685 5.3535920 1.3072677
H -1.9858678 0.5689543 1.4993828
H 1.4543243 -1.0051347 -0.6689159
H 1.2045078 0.6613130 -1.1909501
H 3.4616994 -0.2561042 -1.9181815
H 3.5453970 1.2269566 -0.9570893
H 4.6494961 -0.4841062 2.0552384
H 4.2517660 1.0942652 1.3632517
H 2.2750589 -1.1557511 2.0364649
H 2.3702051 0.4479018 2.7684930
H 4.9490232 -2.3359898 0.6111771
H 3.2262665 -2.4124493 0.1775203
H 4.4629840 -2.2301313 -1.0850129
H -3.0172308 -1.4293651 -2.6616877
H -2.3109817 -3.8219814 -2.7895000
