50

O 6.5044642 0.8636666 -0.3411294
C 5.5750036 1.7111527 -0.8353952
O 5.8711444 2.8054363 -1.2518620
C 4.1667982 1.1628792 -0.7552995
C 4.0316631 -0.2680003 -1.2929977
C 2.5827875 -0.7439945 -1.1834628
C 2.0245393 -0.6575195 0.2654842
C 2.1968721 0.7941021 0.7710429
C 3.6455357 1.2722730 0.6891985
C 2.8211273 -1.5566995 1.1413295
N 3.4116197 -2.2772033 1.8287387
C 0.5701147 -1.1621095 0.3096065
C 0.3266521 -2.5077162 0.0719189
C -0.9743756 -3.0101917 0.0454034
C -2.0583838 -2.1761599 0.2730693
O -3.3549589 -2.5696621 0.2680768
C -3.6110736 -3.9337720 0.0243629
C -1.8243620 -0.8061539 0.5288821
C -0.5214048 -0.3200317 0.5388166
O -2.9437354 -0.0660345 0.7591219
C -2.8194009 1.3321872 0.9958009
C -2.5769038 2.0883519 -0.3095078
C -3.9493235 2.0691678 -1.0105639
C -4.9989160 1.9383359 0.1233770
C -4.1950415 1.8183594 1.4355959
H 7.3501064 1.3367685 -0.4107211
H 3.5628858 1.8301492 -1.3805383
H 4.3486968 -0.3040259 -2.3417971
H 4.6994855 -0.9389276 -0.7424494
H 2.4783023 -1.7690611 -1.5575488
H 1.9394524 -0.1171476 -1.8125458
H 1.8234422 0.8764842 1.7973310
H 1.5758321 1.4459204 0.1423312
H 3.7092246 2.3137629 1.0263176
H 4.2794183 0.6811510 1.3603325
H 1.1558999 -3.1948922 -0.0866468
H -1.1209676 -4.0650186 -0.1553779
H -3.2655150 -4.2344069 -0.9741207
H -3.1309721 -4.5717508 0.7786263
H -4.6936736 -4.0546600 0.0843382
H -0.3553817 0.7349038 0.7329894
H -2.0516912 1.5125548 1.7595369
H -1.7829761 1.6486601 -0.9202063
H -2.2729393 3.1127588 -0.0613643
H -4.0156799 1.2088765 -1.6818200
H -4.0997983 2.9636862 -1.6229576
H -5.6791211 2.7950680 0.1573290
H -5.6155676 1.0503788 -0.0349303
H -4.6465239 1.1390937 2.1632588
H -4.0922782 2.7991093 1.9163242
