36

C 3.7537130 1.9643156 0.0288337
C 4.6079521 1.3185404 1.0858284
C 3.8546764 0.4628696 0.1123612
N 2.7618900 -0.3545377 0.5609779
C 1.4869909 -0.1374790 -0.1205080
C 0.5761037 -1.3055680 0.2568973
C -0.7361821 -1.3325286 -0.5541882
N -1.5438482 -2.5046134 -0.2441754
C -1.5771994 -0.0659200 -0.3930995
C -2.8065523 -0.0809093 -1.3047258
C -3.6924217 1.1624868 -1.1811221
C -4.3758644 1.3078189 0.1787488
O 1.2529965 -2.5169186 -0.0030684
O 0.3192778 -1.1859581 1.6522151
H 4.2481775 2.4602562 -0.8003531
H 2.8233582 2.4312601 0.3428168
H 5.6884363 1.3801077 0.9905276
H 4.2541133 1.3493486 2.1136244
H 4.4522361 -0.0155502 -0.6623826
H 2.6213136 -0.2689858 1.5635912
H 1.6505941 -0.1336661 -1.2034884
H 1.0240683 0.8157315 0.1635686
H -0.4375383 -1.4155730 -1.6107438
H -1.7894798 -2.4826098 0.7438232
H -0.9859984 -3.3420474 -0.3830349
H -0.9752466 0.8226983 -0.6252087
H -1.8826831 0.0285099 0.6579666
H -3.3952739 -0.9813227 -1.0907813
H -2.4712458 -0.1739681 -2.3477758
H -3.0925241 2.0602883 -1.3878370
H -4.4596360 1.1256927 -1.9652359
H -4.9865603 0.4260691 0.4069526
H -3.6467198 1.4252772 0.9880663
H -5.0329002 2.1836796 0.1985891
H 2.1778302 -2.3355467 0.2500790
H 0.3342456 -2.0915489 1.9893610
