24

C -0.4812250 -0.9821186 -0.4686520
C -1.0199574 -1.8429618 0.6574570
O -1.9741938 -1.5648613 1.3450655
O -0.3040020 -2.9657105 0.8244873
C 1.0301372 -0.7421442 -0.3302944
C 1.4065083 -0.0296426 0.9609799
C 2.8801486 0.3397380 0.9764587
O 3.6494235 0.1025750 0.0846459
O 3.3058134 0.9796613 2.0902823
N -1.2468203 0.2429539 -0.4837428
C -1.2702200 1.0381220 -1.5927373
O -0.5724501 0.8034139 -2.5678150
C -2.2138526 2.2204269 -1.4980412
H -0.6410215 -1.5208783 -1.4119665
H -0.7157765 -3.4446697 1.5633234
H 1.3394294 -0.1414689 -1.1886978
H 1.5524119 -1.7003157 -0.3942555
H 1.1926705 -0.6613671 1.8356390
H 0.8139209 0.8868934 1.0839946
H 2.5728201 1.0992507 2.7098138
H -1.9587979 0.3352904 0.2297833
H -3.2477501 1.8869246 -1.3539813
H -2.1496756 2.7979710 -2.4204192
H -1.9477403 2.8629173 -0.6514279
