25

O 0.0496509 -2.5622866 -1.1528025
C -1.2892675 -2.3567524 -1.2774074
O -2.0123483 -3.1428715 -1.8236328
C -1.6997950 -1.0584956 -0.6768488
N -2.8709565 -0.5796469 -1.0095287
O -2.9878779 0.6052768 -0.3404215
C -1.8891089 0.8292845 0.4009983
C -1.0033860 -0.1968620 0.2317322
C 0.3556896 -0.2964117 0.8503112
C 1.4091332 0.5428895 0.1102083
N 1.7145788 0.1005561 -1.2499296
C 2.7068998 0.6046444 0.9353904
O 2.7066710 0.8046401 2.1248250
O 3.8136663 0.4420083 0.2143554
C -1.8622661 2.0885166 1.1954507
H 0.2248633 -3.4249038 -1.5658863
H 0.3304920 0.0638249 1.8845680
H 0.6759557 -1.3408854 0.8898244
H 1.0513516 1.5797657 0.0662728
H 1.2011201 0.6355375 -1.9416237
H 1.4442657 -0.8739696 -1.3624964
H 3.4895373 0.2769899 -0.7047182
H -1.4814922 2.9278949 0.6004560
H -1.2096927 1.9837462 2.0670727
H -2.8676840 2.3477063 1.5338324
