61

N 9.4654330 -0.0730433 -1.2447694
C 8.7538563 0.9824010 -1.6473021
C 7.4101174 1.1794824 -1.3728837
C 6.7199651 0.2211722 -0.6149590
C 7.4582406 -0.8911869 -0.1858271
C 8.8010162 -0.9782666 -0.5263328
N 5.3771503 0.4145815 -0.2995601
C 4.7750124 -0.4586766 0.6980387
C 3.4946448 0.1513633 1.2573444
C 2.5066238 0.4724799 0.1295189
C 3.1953844 1.3708648 -0.8992248
C 4.4778084 0.7303361 -1.4052199
C 1.2871600 1.1914350 0.6903382
O 1.3148175 2.3968073 0.9002605
N 0.1659305 0.4519729 0.9544309
C -1.0855813 1.1604063 1.2123506
C -2.2252655 0.4300469 0.5079926
N -2.3495011 -0.9590203 0.9928485
C -1.1483963 -1.4667394 1.6745085
C 0.1263864 -1.0127030 0.9695605
S -2.9766671 -2.0466566 -0.1388662
O -2.1472249 -2.0412629 -1.3390704
O -3.2108053 -3.2946244 0.5725768
C -4.5296237 -1.2959844 -0.5502170
C -5.4088667 -0.9724936 0.4485675
C -6.6085252 -0.2766886 0.1296654
C -6.8831452 0.0460658 -1.2237579
C -5.9601095 -0.3482227 -2.2333529
C -4.8036567 -1.0046831 -1.9078227
C -8.0708833 0.7593927 -1.5420234
C -8.9351378 1.1211207 -0.5466898
C -8.6783279 0.8010449 0.8080925
C -7.5371195 0.1158895 1.1279341
Cl -10.3915335 1.9956756 -0.9317798
H 9.2897792 1.7223975 -2.2405517
H 6.9107315 2.0837715 -1.7081920
H 6.9940719 -1.6921336 0.3786961
H 9.3784615 -1.8398279 -0.1923183
H 4.5518755 -1.4558009 0.2703014
H 5.4931510 -0.5976735 1.5108904
H 3.0560828 -0.5385045 1.9894422
H 3.7306394 1.0790273 1.7912293
H 2.2015092 -0.4623350 -0.3605454
H 3.4103001 2.3324175 -0.4219027
H 2.5271045 1.5722659 -1.7441608
H 4.2413719 -0.1818031 -1.9858373
H 4.9857141 1.4119593 -2.0902251
H -0.9795382 2.1730480 0.8208414
H -1.2741455 1.2532099 2.2916904
H -3.1754539 0.9438040 0.6912447
H -2.0376229 0.4430825 -0.5752853
H -1.1573246 -1.0867096 2.7025598
H -1.2133546 -2.5550606 1.7278048
H 0.9952134 -1.4080262 1.5068993
H 0.1457967 -1.4159664 -0.0521270
H -5.1924017 -1.2231245 1.4839527
H -6.1840557 -0.1125095 -3.2704029
H -4.0816262 -1.3006650 -2.6633600
H -8.2830682 1.0159880 -2.5761816
H -9.3891059 1.1032837 1.5704131
H -7.3231539 -0.1364994 2.1642569
