46

O 3.4455130 2.1289508 -0.2472598
C 2.7814436 1.1047841 -0.1688963
N 1.4133639 1.1270229 -0.2896170
C 0.6073329 0.0099079 -0.8005267
C -0.8500651 0.4665025 -0.9303805
N -1.2808008 1.1623255 0.2737326
C -0.4696686 2.3016046 0.7235131
C 0.7553027 2.4240806 -0.1739333
C -1.2808138 3.5938814 0.7712566
C -2.1832765 0.6755991 1.1828101
O -2.1511546 1.0178976 2.3590504
C -3.2155041 -0.3100158 0.7101904
C -3.8849427 -0.1893021 -0.5086091
C -4.8587203 -1.1176810 -0.8644601
C -5.1675803 -2.1699669 -0.0064250
C -4.5149608 -2.2807573 1.2195576
C -3.5552841 -1.3440757 1.5827720
C 1.1131608 -0.5605148 -2.1223471
C 3.4566314 -0.2227428 0.0602111
C 2.9619398 -1.1772684 0.9520079
C 3.6393797 -2.3770981 1.1429692
C 4.8154767 -2.6355632 0.4444557
C 5.3258201 -1.6766869 -0.4284334
C 4.6581526 -0.4702559 -0.6051670
H 0.6255482 -0.7851744 -0.0492129
H -1.4832378 -0.4059248 -1.0913492
H -0.9528275 1.1232681 -1.8064955
H -0.1378825 2.0516532 1.7383747
H 0.4674949 2.8099426 -1.1636025
H 1.4812457 3.1206831 0.2454108
H -0.6429693 4.4252582 1.0922605
H -2.1017603 3.5011887 1.4870128
H -1.6963468 3.8285734 -0.2162249
H -3.6478876 0.6342460 -1.1790135
H -5.3644645 -1.0252790 -1.8208187
H -5.9209469 -2.8999788 -0.2910359
H -4.7603242 -3.0944818 1.8976297
H -3.0527778 -1.3979469 2.5450100
H 2.0970688 -1.0222996 -2.0119644
H 0.4192252 -1.3342430 -2.4678404
H 1.1724275 0.2195169 -2.8897275
H 2.0515816 -0.9742014 1.5112227
H 3.2368291 -3.1126423 1.8336587
H 5.3381897 -3.5774475 0.5876921
H 6.2516295 -1.8640122 -0.9665444
H 5.0593422 0.2985748 -1.2608239
