61

N 9.0149368 0.2934484 -1.6397561
C 8.1212912 1.1865757 -2.0694206
C 6.8227658 1.3018240 -1.5975855
C 6.3844356 0.4311035 -0.5833170
C 7.3178058 -0.5172611 -0.1272006
C 8.5873269 -0.5336842 -0.6838147
N 5.1184357 0.5048702 -0.0654464
C 4.0476989 1.1747192 -0.7846683
C 2.6940841 0.5698662 -0.4189449
C 2.3856475 0.6890660 1.0920147
C 3.6861926 0.6957758 1.9095213
C 4.7905860 -0.0973478 1.2150003
C 1.5011598 -0.4872039 1.5099267
O 1.9759978 -1.4639767 2.0746827
N 0.1708547 -0.4544219 1.1940655
C -0.5323035 0.6120341 0.4997991
C -1.1106690 0.1041481 -0.8244205
N -1.7614762 -1.1972485 -0.6170283
C -1.9385223 -1.6397064 0.7635475
C -0.5867543 -1.6800385 1.4613586
S -2.8323049 -1.7189171 -1.7687734
O -2.3309726 -1.2503447 -3.0478950
O -3.0769174 -3.1262382 -1.5065248
C -4.3275838 -0.8267523 -1.4096718
C -5.1335946 -1.2494462 -0.3874143
C -6.2812008 -0.4884268 -0.0346672
C -6.5868497 0.6840015 -0.7700727
C -5.7406114 1.0661961 -1.8479379
C -4.6306390 0.3287888 -2.1650973
C -7.7297597 1.4501051 -0.4128848
C -8.5130975 1.0569763 0.6367932
C -8.2227429 -0.1147014 1.3775672
C -7.1300692 -0.8655716 1.0371044
Cl -9.9041942 2.0043905 1.0878346
H 8.4641137 1.8623695 -2.8531906
H 6.1722282 2.0723780 -1.9990731
H 7.0543916 -1.2480502 0.6308683
H 9.3120626 -1.2666725 -0.3293029
H 4.0517533 2.2567147 -0.5779874
H 4.2179939 1.0516663 -1.8590926
H 2.7003026 -0.4896251 -0.7022973
H 1.9128980 1.0491794 -1.0180044
H 1.8606175 1.6294980 1.2917352
H 4.0279567 1.7287065 2.0458665
H 3.5103549 0.2793126 2.9045319
H 4.4820672 -1.1460907 1.0964108
H 5.6862635 -0.0896203 1.8424997
H -1.3478575 0.9890899 1.1330196
H 0.1302833 1.4557027 0.3160171
H -0.3239213 -0.0302394 -1.5735634
H -1.8232469 0.8387345 -1.2204156
H -2.6396129 -0.9788013 1.2973308
H -2.3665641 -2.6442944 0.7493147
H -0.7162284 -1.8180004 2.5408123
H -0.0032268 -2.5295352 1.0915286
H -4.9078478 -2.1592479 0.1607135
H -5.9899267 1.9594021 -2.4139672
H -3.9783322 0.6053519 -2.9883477
H -7.9711545 2.3489346 -0.9732413
H -8.8691551 -0.3984659 2.2021691
H -6.8949641 -1.7707958 1.5929933
