25

O 0.1678504 -1.9750522 -1.9541020
C -0.7566691 -2.4362651 -1.0897043
O -1.0435966 -3.5948025 -0.9668456
C -1.4028607 -1.3198009 -0.3379881
N -2.5105994 -1.5900075 0.3013232
O -2.9052848 -0.4127981 0.8648712
C -2.0307579 0.5611319 0.5588666
C -1.0193595 0.0491679 -0.2017356
C 0.2575313 0.7318937 -0.5915140
C 1.3920504 0.4949758 0.4245482
N 2.5699001 1.3045290 0.0970289
C 1.8025792 -0.9908899 0.4197969
O 1.1239037 -1.8647790 0.8964177
O 2.9706561 -1.2275052 -0.1802146
C -2.3271851 1.9138905 1.0972099
H 0.5752778 -2.7574697 -2.3602329
H 0.5813544 0.3992464 -1.5801446
H 0.0829690 1.8152694 -0.6510192
H 1.0001497 0.7157688 1.4267399
H 3.0698530 1.5686560 0.9411748
H 2.3125820 2.1600047 -0.3836379
H 3.3054170 -0.3421055 -0.4513348
H -3.3613381 2.1947250 0.8831915
H -2.1886596 1.9406718 2.1829821
H -1.6656629 2.6614449 0.6544206
