40

O 6.8886569 1.0055136 1.3262685
C 5.8164254 1.4850526 1.6420001
C 5.7404704 2.7795238 2.4233382
C 4.5422634 0.8048278 1.2615149
C 3.2867787 1.3198104 1.5821575
C 2.1164627 0.6717991 1.2117996
C 2.1984119 -0.5266400 0.5002572
C 3.4542975 -1.0529718 0.1726513
C 4.6114821 -0.3968039 0.5504773
N 1.0626280 -1.2511183 0.0846091
C -0.2513383 -1.0102550 0.3534966
O -0.6421350 -0.0537344 1.0230693
C -1.1959302 -1.9978950 -0.2105214
C -1.0037651 -3.4001134 -0.3133913
N -2.0581726 -4.0068716 -0.8306009
N -2.9128310 -3.0064017 -1.0939080
C -2.4732295 -1.7761299 -0.7244127
C -3.2919980 -0.5739231 -0.9784303
C -3.7937191 -0.3479168 -2.2671335
C -4.6849550 0.6714973 -2.5324563
Cl -5.2876971 0.9348222 -4.1489719
C -5.1493311 1.4945280 -1.4973613
O -6.0450292 2.4839888 -1.6846125
C -4.6655471 1.2842021 -0.2147877
C -3.7140223 0.2999362 0.0485950
O -3.3021660 0.1950516 1.3262783
H 5.1912666 3.5410533 1.8583144
H 6.7550048 3.1299246 2.6194256
H 5.2128671 2.6299406 3.3718672
H 3.2024349 2.2499888 2.1383709
H 1.1537262 1.0868571 1.4699829
H 3.5255187 -1.9881966 -0.3777902
H 5.5874159 -0.8022764 0.3022529
H 1.2472534 -2.0389166 -0.5183872
H -0.1590371 -3.9919093 0.0163379
H -3.8289058 -3.2269232 -1.4612881
H -3.4732330 -0.9886379 -3.0824822
H -6.2915700 2.5179908 -2.6205818
H -5.0149694 1.9070402 0.6018446
H -2.3538790 -0.0557149 1.3376053
