24

C -0.3900926 -1.0861190 -0.1051562
C -1.1034286 -2.3013498 0.4527705
O -0.7212714 -3.4356886 0.3100106
O -2.1884720 -1.9884101 1.1915974
C 0.8802715 -0.8450818 0.7351894
C 1.7130337 0.3188842 0.2087227
C 3.0478576 0.4315633 0.9167694
O 3.4414853 -0.3277871 1.7600599
O 3.8093102 1.4813116 0.5319222
N -1.2543901 0.0703869 -0.1934644
C -1.1898036 0.9068680 -1.2708124
O -0.3514283 0.7640434 -2.1490671
C -2.2070451 2.0279606 -1.2701695
H -0.0784231 -1.3357586 -1.1230566
H -2.5370566 -2.8325015 1.5245818
H 1.4771374 -1.7630987 0.7269675
H 0.6075693 -0.6616543 1.7809532
H 1.1764425 1.2681514 0.3316782
H 1.8905876 0.2179750 -0.8706212
H 3.3480209 1.9898945 -0.1494518
H -2.0070583 0.1619485 0.4724617
H -2.1924620 2.5122955 -2.2470521
H -1.9546661 2.7695646 -0.5040322
H -3.2159193 1.6565993 -1.0609016
