45

S -0.7489774 -2.3507698 0.4000038
C -1.4104120 -1.9240588 -1.1436732
C -0.4288027 -1.7821727 -2.0819699
C 0.8724920 -1.9969774 -1.5520290
C 0.8667897 -2.3103066 -0.2240771
C 2.0698477 -2.6282615 0.6346022
O 2.7371880 -3.7854055 0.1634067
C 3.0607753 -1.4817561 0.6481284
C 4.2936281 -1.5616802 -0.0019825
C 5.1711577 -0.4915410 0.0140377
C 4.8331160 0.6825489 0.6948005
O 5.7604913 1.6758676 0.6581121
C 5.4559982 2.8760615 1.3340388
C 3.6082976 0.7703040 1.3552231
C 2.7327570 -0.3119565 1.3209255
C -2.8927227 -1.7504775 -1.3130326
O -3.1404455 -1.6153432 -2.7025690
C -3.4273260 -0.5605252 -0.5245666
C -3.2177604 0.7366794 -0.9775538
C -3.6744406 1.8330350 -0.2512719
C -4.3582628 1.6311022 0.9478326
O -4.8434075 2.6308313 1.7313324
C -4.6400489 3.9555948 1.2908494
C -4.5821428 0.3290737 1.4073341
C -4.1231895 -0.7503983 0.6701390
H -0.6515793 -1.5377989 -3.1142960
H 1.7853444 -1.9313951 -2.1348133
H 1.7137233 -2.7866076 1.6648342
H 2.0910152 -4.5040231 0.1460583
H 4.5602873 -2.4802636 -0.5165984
H 6.1341945 -0.5379943 -0.4863561
H 5.3161924 2.7073911 2.4100852
H 4.5535342 3.3493584 0.9250989
H 6.3119838 3.5345242 1.1793452
H 3.3289659 1.6654916 1.9002911
H 1.7801853 -0.2350488 1.8431688
H -3.3884526 -2.6548043 -0.9184368
H -4.0945206 -1.5024014 -2.8149291
H -2.6998096 0.9033876 -1.9190951
H -3.4962530 2.8338596 -0.6299570
H -3.5706295 4.1914984 1.2114826
H -5.1191763 4.1328622 0.3188794
H -5.0980736 4.5992988 2.0431245
H -5.1175666 0.1936426 2.3422350
H -4.3139654 -1.7607462 1.0296381
