46

O 2.9984422 1.9827624 0.9674079
C 2.6826948 0.9581412 0.3788154
N 1.5019668 0.8709256 -0.3364611
C 0.6743703 -0.3471371 -0.3718326
C -0.5062564 -0.2094054 0.6239905
N -1.2513110 1.0334651 0.4198004
C -0.3668670 2.1995195 0.5638809
C 0.7491692 2.1183155 -0.4894435
C -1.0822703 3.5433484 0.6013004
C -2.3097330 1.0718573 -0.4774621
O -2.3810115 1.8873406 -1.3875988
C -3.3628067 0.0103163 -0.3055919
C -3.6477796 -0.5551124 0.9379581
C -4.6488049 -1.5145984 1.0578147
C -5.3696893 -1.9153889 -0.0636643
C -5.0953717 -1.3447740 -1.3046317
C -4.1041305 -0.3776517 -1.4238215
C 0.1878859 -0.6460547 -1.7877258
C 3.5780045 -0.2500619 0.4249517
C 4.2959065 -0.4712972 1.6014524
C 5.1515893 -1.5617918 1.7058157
C 5.3243568 -2.4189342 0.6212259
C 4.6425620 -2.1785147 -0.5693205
C 3.7711239 -1.0974112 -0.6661951
H 1.2932053 -1.1796889 -0.0232808
H -1.1776675 -1.0645048 0.5162298
H -0.1232951 -0.2073311 1.6524310
H 0.1216420 2.0480310 1.5366656
H 0.3059868 2.1707560 -1.4920528
H 1.4584028 2.9392007 -0.3667649
H -1.5448807 3.7793745 -0.3576593
H -0.3610067 4.3293888 0.8532145
H -1.8589798 3.5384981 1.3719787
H -3.0800384 -0.2436171 1.8109767
H -4.8549530 -1.9576545 2.0276380
H -6.1491429 -2.6670300 0.0307469
H -5.6603717 -1.6475316 -2.1827119
H -3.8912015 0.0900793 -2.3815742
H -0.4007005 -1.5702201 -1.8018827
H 1.0351381 -0.7778091 -2.4673852
H -0.4377444 0.1604895 -2.1836099
H 4.1729853 0.2252551 2.4263686
H 5.6925043 -1.7385422 2.6330239
H 5.9980947 -3.2684221 0.7001273
H 4.7803930 -2.8374227 -1.4220144
H 3.2497899 -0.9085549 -1.6011275
