34

C -1.2387673 -0.3792973 -0.4780589
N 0.0830430 0.1689793 -0.1975600
C 1.1712323 -0.7979169 -0.3782650
C 2.5281710 -0.1605815 -0.1758945
C 2.7034261 0.9209547 0.6878913
C 3.9662483 1.4669971 0.8908949
C 5.0721770 0.9411907 0.2297002
C 4.9060343 -0.1376658 -0.6337391
C 3.6415481 -0.6827047 -0.8334232
C -1.7395355 -1.2712317 0.6991512
O -1.1016568 -0.9049460 1.9074778
C -3.2729790 -1.0032216 0.8164416
O -3.5731937 -0.2937165 1.9990118
C -3.6167348 -0.0848389 -0.3771243
O -4.7277196 0.7282293 -0.1371584
C -2.3197608 0.6965809 -0.5899141
S -2.2614259 1.5996146 -2.1592474
H -1.2432191 -0.9825447 -1.4000160
H 0.2490754 0.9485336 -0.8318187
H 1.1329557 -1.2724281 -1.3734654
H 1.0298800 -1.6071770 0.3536050
H 1.8385559 1.3406333 1.1957226
H 4.0848790 2.3109740 1.5665124
H 6.0584804 1.3698824 0.3885476
H 5.7649450 -0.5551015 -1.1547492
H 3.5196816 -1.5262507 -1.5112026
H -1.5415948 -2.3322073 0.5026592
H -0.4173537 -0.2598770 1.6360399
H -3.8578209 -1.9298754 0.7942194
H -2.7292313 -0.2420949 2.4827347
H -3.8253402 -0.6869208 -1.2717064
H -4.7003006 0.9237493 0.8139734
H -2.1917645 1.4042397 0.2368580
H -3.3916348 2.2902392 -1.9424980
