46

O 1.6460453 -2.3305256 0.8518591
C 1.9941546 -1.2318453 0.4356777
N 1.1213496 -0.4198405 -0.2382904
C -0.0635176 -1.0721707 -0.8087899
C -1.0808682 0.0004224 -1.1854822
N -1.2332696 0.9327634 -0.0818779
C -0.0392469 1.7106397 0.2720122
C 1.2048940 1.0305020 -0.3157885
C -0.1180055 3.1605243 -0.1985895
C -2.3838261 1.2111013 0.6021995
O -2.4598575 2.1720953 1.3587290
C -3.5777267 0.3208864 0.3838415
C -3.5187135 -1.0680994 0.5077448
C -4.6604468 -1.8406527 0.3187616
C -5.8714896 -1.2278632 0.0087245
C -5.9418108 0.1601734 -0.0887398
C -4.8041024 0.9314977 0.1180368
C 0.2719682 -1.9673833 -1.9973785
C 3.4016309 -0.7506172 0.6619979
C 4.1308843 -0.0516671 -0.3017320
C 5.4482396 0.3201354 -0.0499660
C 6.0455033 -0.0051347 1.1649991
C 5.3269946 -0.7198610 2.1216495
C 4.0171520 -1.1059513 1.8626734
H -0.4788379 -1.6897512 -0.0053632
H -2.0420994 -0.4405190 -1.4449704
H -0.7297898 0.5397824 -2.0770623
H 0.0190746 1.6907392 1.3660410
H 1.3227233 1.3459210 -1.3639675
H 2.0844542 1.3689651 0.2310670
H -0.2569898 3.2045231 -1.2862586
H -0.9529684 3.6708442 0.2824714
H 0.8102691 3.6845481 0.0543566
H -2.5766727 -1.5499887 0.7608546
H -4.5980949 -2.9213115 0.4050678
H -6.7616413 -1.8316298 -0.1491824
H -6.8886421 0.6435467 -0.3186052
H -4.8485754 2.0166759 0.0730021
H 0.9252436 -2.7882351 -1.6917554
H 0.7703946 -1.3933063 -2.7870205
H -0.6473324 -2.3979818 -2.4090763
H 3.6725190 0.1999106 -1.2555187
H 6.0032514 0.8744725 -0.8015436
H 7.0723662 0.2917539 1.3635620
H 5.7930669 -0.9889506 3.0669309
H 3.4518439 -1.6891398 2.5848980
