40

O 5.6062629 3.2798096 1.8272432
C 5.5131795 2.0967259 2.0937809
C 6.5664690 1.4042516 2.9335215
C 4.3529252 1.2964226 1.5951475
C 3.3803899 1.9364858 0.8238470
C 2.2800258 1.2553395 0.3281453
C 2.1373015 -0.1084297 0.6033368
C 3.1049412 -0.7598589 1.3792098
C 4.2009945 -0.0642824 1.8654288
N 1.0575108 -0.8777011 0.1299147
C 0.0295112 -0.5117250 -0.7067844
O -0.0858420 0.6249969 -1.1430633
C -0.8934550 -1.6381145 -1.0353567
C -0.4535529 -2.9671757 -1.2576450
N -1.4508367 -3.7959463 -1.4875952
N -2.5419210 -3.0319838 -1.4054094
C -2.2912831 -1.7187086 -1.1667589
C -3.3598230 -0.7033576 -1.1353072
C -3.0724736 0.6334890 -1.4174825
C -4.0575821 1.6026518 -1.3990049
Cl -3.6565356 3.2679816 -1.7415475
C -5.3854723 1.2789424 -1.1111757
O -6.3825149 2.1841484 -1.0821762
C -5.6965417 -0.0516208 -0.8492569
C -4.7064634 -1.0203448 -0.8701387
O -5.0249359 -2.3283548 -0.6443384
H 6.1233720 0.9730458 3.8383350
H 7.0362958 0.5879872 2.3729540
H 7.3249268 2.1372700 3.2129421
H 3.5051185 2.9945737 0.6119469
H 1.5370976 1.7642488 -0.2694451
H 3.0072693 -1.8204881 1.5994071
H 4.9435211 -0.5915964 2.4584763
H 1.0315490 -1.8249002 0.4745343
H 0.5618040 -3.3429366 -1.3108185
H -3.4614861 -3.4481769 -1.4417242
H -2.0584646 0.9169424 -1.6594983
H -6.0232746 3.0614352 -1.2824242
H -6.7338094 -0.3073540 -0.6400407
H -5.9644962 -2.3836976 -0.4254779
