45

S -0.3062481 -2.7957158 -0.5069584
C -1.3902993 -1.5759483 -1.0999697
C -0.7007837 -0.5296273 -1.6400477
C 0.7083102 -0.6976848 -1.5766150
C 1.0822064 -1.8709267 -0.9883669
C 2.4962788 -2.3695932 -0.7913999
O 3.1382953 -2.5709267 -2.0376750
C 3.3204931 -1.3901131 0.0192111
C 4.3590145 -0.6547162 -0.5377228
C 5.0921338 0.2470750 0.2306136
C 4.7889203 0.4076968 1.5814341
O 5.4444835 1.2507876 2.4218332
C 6.4958470 2.0227407 1.8847176
C 3.7443512 -0.3298001 2.1504654
C 3.0206077 -1.2138529 1.3706199
C -2.8937433 -1.7253924 -1.0331834
O -3.4539820 -1.7752547 -2.3330076
C -3.5309236 -0.5747494 -0.2808469
C -3.3160873 -0.4675574 1.0937330
C -3.8760372 0.5663005 1.8227462
C -4.6641600 1.5265414 1.1781122
O -5.1729880 2.5047408 1.9725271
C -5.9626223 3.5001347 1.3597605
C -4.8784251 1.4354063 -0.1959523
C -4.3146222 0.3821412 -0.9129380
H -1.1896257 0.3353322 -2.0755193
H 1.4231358 0.0235657 -1.9580194
H 2.4412658 -3.3171423 -0.2323799
H 2.5809374 -3.1703953 -2.5521443
H 4.6024229 -0.7900849 -1.5872928
H 5.8937660 0.8116067 -0.2344225
H 6.1407313 2.6835431 1.0831914
H 6.8765562 2.6265288 2.7095971
H 7.3021793 1.3881533 1.4942081
H 3.5239173 -0.1881340 3.2043156
H 2.2087299 -1.7830380 1.8202196
H -3.1128343 -2.6563290 -0.4866387
H -3.0123416 -2.4931542 -2.8065588
H -2.7032015 -1.2099139 1.6021362
H -3.7206428 0.6571350 2.8935889
H -5.3938366 4.0547564 0.6020632
H -6.2607998 4.1805881 2.1585188
H -6.8585327 3.0715383 0.8917632
H -5.4810115 2.1708727 -0.7189061
H -4.4911357 0.3028649 -1.9814123
