45

S 0.6572856 -0.7920204 -1.2675895
C -0.9406503 -0.4493084 -0.6839180
C -1.1805074 -1.0864112 0.4990937
C -0.0790984 -1.8730478 0.9341302
C 0.9931085 -1.8166152 0.0861363
C 2.2966202 -2.5687331 0.1982489
O 2.3914331 -3.6070560 -0.7573745
C 3.5005964 -1.6409581 0.1765468
C 3.5058298 -0.4836073 0.9469951
C 4.6053672 0.3704918 0.9564292
C 5.7242349 0.0604897 0.1843911
O 6.8461927 0.8247115 0.1197779
C 6.8543288 2.0253650 0.8605222
C 5.7345379 -1.1101155 -0.5805049
C 4.6339223 -1.9486022 -0.5775896
C -1.8499276 0.4110874 -1.5218522
O -1.1927165 1.6433812 -1.7685176
C -3.1981420 0.5911312 -0.8571967
C -4.2151556 -0.3327906 -1.1019834
C -5.4346342 -0.2360658 -0.4543150
C -5.6572984 0.8010907 0.4593767
O -6.8793154 0.8076147 1.0546324
C -7.1537083 1.8369626 1.9794930
C -4.6514532 1.7365363 0.7059787
C -3.4306381 1.6243265 0.0434087
H -2.1182397 -0.9854165 1.0385463
H -0.0762198 -2.4681547 1.8405268
H 2.2860946 -3.0823487 1.1698292
H 2.1352357 -3.2314472 -1.6120512
H 2.6381737 -0.2332972 1.5553987
H 4.5743068 1.2702323 1.5607317
H 6.0512547 2.7014190 0.5374477
H 6.7505336 1.8335202 1.9368822
H 7.8210237 2.4926515 0.6676314
H 6.6191288 -1.3357507 -1.1689332
H 4.6451206 -2.8641892 -1.1637595
H -2.0137403 -0.1237963 -2.4751781
H -1.7354379 2.1293662 -2.4031786
H -4.0428744 -1.1410487 -1.8112879
H -6.2328650 -0.9505520 -0.6308321
H -8.1683182 1.6552566 2.3381533
H -7.1075811 2.8262067 1.5048308
H -6.4561698 1.8128495 2.8276092
H -4.8052883 2.5521225 1.4056176
H -2.6444494 2.3546156 0.2251972
