50

O 7.0799545 0.5356139 0.1669497
C 6.1628512 -0.0495269 -0.6322309
O 6.3556472 -0.2126567 -1.8138334
C 4.9086844 -0.4354444 0.1290433
C 4.2469760 0.8423067 0.7008944
C 2.7477023 0.6425672 0.8984083
C 2.0165545 0.4267178 -0.4672537
C 2.9530641 -0.3142434 -1.4654768
C 3.9390325 -1.2396234 -0.7534921
C 1.7448774 1.7644014 -1.0559986
N 1.5397992 2.8107292 -1.5072852
C 0.6676978 -0.2826656 -0.2279975
C 0.4623083 -1.6320175 -0.4919451
C -0.7652175 -2.2389899 -0.2248717
C -1.8151504 -1.5110837 0.3243834
O -3.0538812 -2.0019949 0.5802675
C -3.2683172 -3.3746882 0.3345529
C -1.6073433 -0.1519130 0.6254494
C -0.3841704 0.4392118 0.3413040
O -2.6208570 0.5418251 1.2247742
C -3.0878515 1.6852175 0.5083163
C -4.1772700 2.3091857 1.3671815
C -5.3416223 1.3226359 1.2006900
C -5.2135596 0.7731720 -0.2434316
C -3.8286923 1.2425760 -0.7552023
H 7.8364113 0.7492193 -0.4045124
H 5.2373722 -1.0664873 0.9636774
H 4.7331747 1.1144403 1.6408783
H 4.4050975 1.6804991 0.0121901
H 2.3020102 1.4990590 1.4151949
H 2.5681129 -0.2302867 1.5356956
H 2.3469450 -0.8563093 -2.1982182
H 3.5264635 0.4244379 -2.0352686
H 4.5087509 -1.8192930 -1.4844194
H 3.3861662 -1.9487244 -0.1251272
H 1.2499985 -2.2479935 -0.9189164
H -0.8950242 -3.2880905 -0.4670177
H -2.5878744 -3.9976640 0.9300074
H -4.2985280 -3.5806776 0.6283684
H -3.1337854 -3.6167766 -0.7283112
H -0.2515344 1.4903892 0.5829132
H -2.2532326 2.3675868 0.3028244
H -4.4373801 3.2963430 0.9619025
H -3.8564043 2.4414613 2.4043106
H -6.3103679 1.7966882 1.3870474
H -5.2369846 0.5051715 1.9202109
H -5.2807461 -0.3177677 -0.2461667
H -6.0103734 1.1496535 -0.8918242
H -3.9295123 2.1010574 -1.4289465
H -3.2798702 0.4631511 -1.2940876
