40

O 6.3681536 0.5975131 3.2579791
C 5.6477943 1.2743311 2.5488551
C 5.9747887 2.7258879 2.2685068
C 4.4197364 0.6840269 1.9358110
C 4.1205742 -0.6551122 2.2025722
C 2.9938829 -1.2425306 1.6571044
C 2.1388191 -0.5067862 0.8237840
C 2.4277017 0.8329187 0.5508007
C 3.5617100 1.4085839 1.1085834
N 1.0197849 -1.1752580 0.2945192
C 0.0789186 -0.7187833 -0.5973486
O 0.0942840 0.4220345 -1.0377450
C -0.9242997 -1.7561468 -0.9767345
C -0.5990281 -3.1219667 -1.1715899
N -1.6558105 -3.8559304 -1.4520534
N -2.6735734 -2.9928557 -1.4297412
C -2.3141505 -1.7068289 -1.1817656
C -3.2819521 -0.5950971 -1.2079895
C -2.8568128 0.7075777 -1.4758066
C -3.7471022 1.7641126 -1.5101599
Cl -3.1751253 3.3829289 -1.8314205
C -5.1127601 1.5665658 -1.2932775
O -6.0219422 2.5600530 -1.3188546
C -5.5595265 0.2722716 -1.0470186
C -4.6640373 -0.7839776 -1.0139920
O -5.1139592 -2.0554464 -0.8039378
H 5.1614402 3.3804857 2.6013983
H 6.1154186 2.8924799 1.1944477
H 6.8918557 2.9836021 2.8003695
H 4.7913327 -1.2199942 2.8430191
H 2.7783273 -2.2870342 1.8730167
H 1.7755191 1.4074098 -0.0901874
H 3.7742222 2.4504422 0.8813517
H 0.8851219 -2.1136854 0.6383527
H 0.3784055 -3.5905913 -1.1684128
H -3.6248892 -3.3215023 -1.5128374
H -1.8095251 0.8939855 -1.6644438
H -5.5727970 3.3993044 -1.4993824
H -6.6257122 0.1149376 -0.8937600
H -6.0648813 -2.0218269 -0.6361093
