46

O 2.5001504 -2.1502265 -1.3576026
C 2.4380576 -1.1859151 -0.6053119
N 1.2435636 -0.7496181 -0.0867831
C 0.0354759 -1.3519558 -0.6691433
C -1.1249412 -1.1697894 0.3027468
N -1.2481811 0.2319382 0.7055099
C -0.0392335 0.9035528 1.2044726
C 1.1120435 -0.0957079 1.2159900
C 0.2694532 2.1654816 0.3967402
C -2.4405848 0.8326852 1.0269368
O -2.5024461 1.7486167 1.8375810
C -3.6844042 0.3164579 0.3585567
C -3.7565955 0.1081188 -1.0196248
C -4.9348934 -0.3539561 -1.5976272
C -6.0479603 -0.6075841 -0.8003848
C -5.9855928 -0.3792890 0.5721189
C -4.8135773 0.0966143 1.1482130
C -0.2528837 -0.7861672 -2.0608703
C 3.6834773 -0.4452482 -0.2044481
C 3.7693182 0.9468233 -0.2556048
C 4.9480029 1.5900306 0.1089331
C 6.0477869 0.8437587 0.5242518
C 5.9720396 -0.5465298 0.5551383
C 4.7998711 -1.1905176 0.1765761
H 0.2324696 -2.4233040 -0.7771142
H -0.9708335 -1.8080271 1.1860481
H -2.0544072 -1.5024325 -0.1576602
H -0.2446978 1.2076111 2.2358080
H 2.0434029 0.4095787 1.4685427
H 0.9428572 -0.8455669 2.0036314
H -0.5435508 2.8891700 0.4996418
H 1.1886560 2.6376194 0.7651934
H 0.3960974 1.9329694 -0.6662242
H -2.8880631 0.3152226 -1.6423487
H -4.9782722 -0.5295109 -2.6680302
H -6.9668404 -0.9749488 -1.2505109
H -6.8570697 -0.5673551 1.1946059
H -4.7554105 0.2975779 2.2152511
H -0.3718482 0.3023016 -2.0278590
H 0.5662557 -1.0256154 -2.7442492
H -1.1707791 -1.2279162 -2.4682356
H 2.9108370 1.5277902 -0.5881050
H 5.0020078 2.6739357 0.0823296
H 6.9669037 1.3460116 0.8155236
H 6.8332273 -1.1310253 0.8699404
H 4.7314148 -2.2756575 0.1776526
