61

N 7.8954381 2.8236748 0.4284579
C 7.3797625 2.1041770 1.4277677
C 6.4151731 1.1203935 1.2776225
C 5.9354117 0.8221947 -0.0069635
C 6.4782075 1.5667835 -1.0649397
C 7.4303605 2.5384267 -0.7875273
N 4.9895636 -0.1910428 -0.1846344
C 4.6961689 -0.5926038 -1.5576915
C 3.9433631 -1.9209743 -1.6021639
C 2.7000674 -1.9452022 -0.7091063
C 3.0871361 -1.4639325 0.6988284
C 3.7875547 -0.1128399 0.6475868
C 1.5676055 -1.1022158 -1.3071487
O 1.7788017 -0.2777996 -2.1870784
N 0.3021850 -1.2951449 -0.8165459
C -0.7763724 -0.4325123 -1.2849082
C -1.4014626 0.3021812 -0.1022754
N -1.8652610 -0.6926646 0.8799274
C -0.7648311 -1.5432947 1.3713066
C -0.1317140 -2.2626402 0.1814211
S -2.8006198 -0.0541890 2.1327325
O -2.1152998 1.0974491 2.7036218
O -3.1895317 -1.1756085 2.9748525
C -4.2258865 0.5323109 1.2612711
C -4.9737182 -0.3570715 0.5392228
C -6.1179680 0.1033845 -0.1685544
C -6.4667558 1.4763993 -0.1044545
C -5.6623841 2.3623745 0.6664539
C -4.5618238 1.9039098 1.3392370
C -7.6128940 1.9369015 -0.8076715
C -8.3638426 1.0573636 -1.5367229
C -8.0279741 -0.3164221 -1.6123212
C -6.9268271 -0.7718926 -0.9391281
Cl -9.7700311 1.6186132 -2.3994427
H 7.7542594 2.3351680 2.4243405
H 6.0620489 0.5684761 2.1433210
H 6.1555682 1.4155787 -2.0885817
H 7.8471881 3.1223839 -1.6083673
H 5.6479816 -0.7218301 -2.0836819
H 4.1150822 0.1785518 -2.0822727
H 4.6218168 -2.7155599 -1.2663488
H 3.6699200 -2.1421049 -2.6389642
H 2.3451411 -2.9816613 -0.6519256
H 3.7666964 -2.1976850 1.1470621
H 2.2109481 -1.3921682 1.3532662
H 4.0758513 0.1884844 1.6563116
H 3.1029880 0.6640138 0.2665955
H -1.5447263 -1.0496553 -1.7720730
H -0.3640375 0.2621182 -2.0176238
H -0.6758075 0.9817008 0.3636067
H -2.2572821 0.8936595 -0.4464827
H -1.1848702 -2.2642681 2.0773982
H -0.0203728 -0.9352101 1.9069212
H -0.8894538 -2.9202220 -0.2680769
H 0.6944754 -2.8927463 0.5128434
H -4.7001603 -1.4082282 0.5069106
H -5.9374650 3.4117204 0.7124652
H -3.9376233 2.5626516 1.9349749
H -7.8866000 2.9871968 -0.7610909
H -8.6481117 -0.9846122 -2.2020189
H -6.6550566 -1.8243385 -0.9860412
