45

S -0.0773300 -0.0079762 0.0690693
C -0.8301883 0.2648217 1.6007083
C -0.4469827 -0.6664598 2.5201237
C 0.4702453 -1.6110650 1.9833855
C 0.7761113 -1.3805665 0.6695242
C 1.7435630 -2.1363841 -0.2044289
O 1.0998883 -2.4743703 -1.4200717
C 3.0287649 -1.3532898 -0.4463323
C 3.9788190 -1.2613192 0.5630389
C 5.1626694 -0.5506522 0.3808085
C 5.4001269 0.0861430 -0.8370136
O 6.5174505 0.8057626 -1.1225693
C 7.5003457 0.9063702 -0.1154962
C 4.4491381 0.0013404 -1.8591466
C 3.2812192 -0.7147580 -1.6629180
C -1.7787545 1.4117102 1.7928325
O -2.1090937 1.4611483 3.1709691
C -3.0189802 1.2790255 0.9189042
C -4.0253688 0.3799648 1.2536531
C -5.1476805 0.2246436 0.4450823
C -5.2709797 0.9857990 -0.7170779
O -6.3188811 0.9057324 -1.5787252
C -7.3585596 0.0101683 -1.2525177
C -4.2724574 1.9051140 -1.0530804
C -3.1642224 2.0492523 -0.2353292
H -0.8213733 -0.6586540 3.5372507
H 0.8891040 -2.4352690 2.5519440
H 2.0063143 -3.0524503 0.3557224
H 1.6490643 -3.1401576 -1.8567666
H 3.8092566 -1.7607481 1.5148898
H 5.8876354 -0.5055537 1.1861804
H 7.8973373 -0.0795261 0.1608823
H 8.3020432 1.5135611 -0.5376460
H 7.1062529 1.3978752 0.7838311
H 4.6585137 0.5013258 -2.8001472
H 2.5480545 -0.7897187 -2.4633139
H -1.2581026 2.3376003 1.4907062
H -2.6899532 2.2241757 3.2976698
H -3.9465697 -0.2055517 2.1666387
H -5.9165606 -0.4849540 0.7320696
H -7.8239869 0.2688385 -0.2920723
H -6.9980511 -1.0262391 -1.2066564
H -8.0955486 0.1035779 -2.0510642
H -4.3920082 2.4917657 -1.9583284
H -2.4003829 2.7798469 -0.4974834
