25

O -1.7040447 -3.4854282 -1.6363339
C -0.9655319 -2.3727053 -1.6260359
O -0.0007595 -2.2006127 -2.3382169
C -1.4728662 -1.3749827 -0.6503306
N -2.5758445 -1.6014256 0.0224916
O -2.7616553 -0.4845584 0.7886687
C -1.7726794 0.3996682 0.5679382
C -0.8983128 -0.1074146 -0.3462235
C 0.3839907 0.5023879 -0.8196903
C 1.3678254 0.8111905 0.3194709
N 2.5671121 1.5486053 -0.0876080
C 1.8129241 -0.4525530 1.0876051
O 1.0990321 -1.4022553 1.2884329
O 3.0622562 -0.3758618 1.5507949
C -1.8348681 1.6763853 1.3365810
H -1.3074042 -4.0693473 -2.3046357
H 0.1704858 1.4479863 -1.3366736
H 0.8425036 -0.1688850 -1.5529359
H 0.8481441 1.4206095 1.0667880
H 2.3984116 2.5477561 -0.1252692
H 2.8653220 1.2536900 -1.0139143
H 3.4197715 0.4698420 1.1948366
H -1.4143424 2.4992510 0.7516448
H -1.2603469 1.6067067 2.2687361
H -2.8691246 1.9118499 1.5939794
