astex_1n2j_07.xyz
 OpenBabel12161914463D

 22 21  0  0  1  0  0  0  0  0999 V2000
    1.9276    1.4855    0.2108 O   0  0  0  0  0  0  0  0  0  0  0  0
    1.9510    0.2957    0.0155 C   0  0  0  0  0  0  0  0  0  0  0  0
    3.1178   -0.3723   -0.1333 O   0  0  0  0  0  0  0  0  0  0  0  0
    0.7694   -0.6631   -0.1017 C   0  0  2  0  0  0  0  0  0  0  0  0
    0.9092   -1.4112   -1.2940 O   0  0  0  0  0  0  0  0  0  0  0  0
   -0.6106    0.0057   -0.1083 C   0  0  0  0  0  0  0  0  0  0  0  0
   -1.6608   -1.1115   -0.1385 C   0  0  0  0  0  0  0  0  0  0  0  0
   -0.7940    0.9096   -1.3295 C   0  0  0  0  0  0  0  0  0  0  0  0
   -0.7955    0.8397    1.1573 C   0  0  0  0  0  0  0  0  0  0  0  0
   -0.4515    0.0445    2.2773 O   0  0  0  0  0  0  0  0  0  0  0  0
    3.8243    0.2912   -0.0587 H   0  0  0  0  0  0  0  0  0  0  0  0
    0.8165   -1.3165    0.7822 H   0  0  0  0  0  0  0  0  0  0  0  0
    1.8167   -1.7405   -1.3100 H   0  0  0  0  0  0  0  0  0  0  0  0
   -1.5462   -1.7167   -1.0410 H   0  0  0  0  0  0  0  0  0  0  0  0
   -1.5696   -1.7639    0.7353 H   0  0  0  0  0  0  0  0  0  0  0  0
   -2.6687   -0.6824   -0.1329 H   0  0  0  0  0  0  0  0  0  0  0  0
   -0.0650    1.7260   -1.3338 H   0  0  0  0  0  0  0  0  0  0  0  0
   -1.7992    1.3471   -1.3161 H   0  0  0  0  0  0  0  0  0  0  0  0
   -0.6787    0.3334   -2.2522 H   0  0  0  0  0  0  0  0  0  0  0  0
   -0.1665    1.7346    1.0993 H   0  0  0  0  0  0  0  0  0  0  0  0
   -1.8507    1.1608    1.2107 H   0  0  0  0  0  0  0  0  0  0  0  0
   -0.4755    0.6043    3.0616 H   0  0  0  0  0  0  0  0  0  0  0  0
  2  1  2  0  0  0  0
  3 11  1  0  0  0  0
  3  2  1  0  0  0  0
  4  2  1  0  0  0  0
  4 12  1  1  0  0  0
  5  4  1  0  0  0  0
  6  4  1  0  0  0  0
  6  9  1  0  0  0  0
  7 16  1  0  0  0  0
  7  6  1  0  0  0  0
  7 15  1  0  0  0  0
  8 18  1  0  0  0  0
  8  6  1  0  0  0  0
  9 21  1  0  0  0  0
  9 10  1  0  0  0  0
 10 22  1  0  0  0  0
 13  5  1  0  0  0  0
 14  7  1  0  0  0  0
 17  8  1  0  0  0  0
 19  8  1  0  0  0  0
 20  9  1  0  0  0  0
M  END
