astex_1of1_08.xyz
 OpenBabel12161914463D

 34 36  0  0  1  0  0  0  0  0999 V2000
    3.7550    1.7331   -1.1041 O   0  0  0  0  0  0  0  0  0  0  0  0
    2.5872    1.6379   -0.3063 C   0  0  0  0  0  0  0  0  0  0  0  0
    2.5285    0.2334    0.2727 C   0  0  2  0  0  0  0  0  0  0  0  0
    2.4517   -0.8347   -0.8499 C   0  0  1  0  0  0  0  0  0  0  0  0
    3.1528   -2.0207   -0.4928 O   0  0  0  0  0  0  0  0  0  0  0  0
    0.9660   -1.2036   -0.9785 C   0  0  0  0  0  0  0  0  0  0  0  0
    0.3178   -0.8443    0.3469 C   0  0  2  0  0  0  0  0  0  0  0  0
   -1.1083   -0.6247    0.3717 N   0  0  0  0  0  0  0  0  0  0  0  0
   -1.9174   -1.7556    0.3377 C   0  0  0  0  0  0  0  0  0  0  0  0
   -1.4786   -2.8861    0.3902 O   0  0  0  0  0  0  0  0  0  0  0  0
   -3.2641   -1.4805    0.2436 N   0  0  0  0  0  0  0  0  0  0  0  0
   -3.8897   -0.2381    0.1371 C   0  0  0  0  0  0  0  0  0  0  0  0
   -5.0998   -0.1597    0.0379 O   0  0  0  0  0  0  0  0  0  0  0  0
   -2.9614    0.8968    0.1537 C   0  0  0  0  0  0  0  0  0  0  0  0
   -1.6463    0.6475    0.2716 C   0  0  0  0  0  0  0  0  0  0  0  0
   -3.5587    2.2635    0.0273 C   0  0  0  0  0  0  0  0  0  0  0  0
    1.2725    0.0292    1.1059 C   0  0  1  0  0  0  0  0  0  0  0  0
    0.9976   -1.3691    1.5758 C   0  0  0  0  0  0  0  0  0  0  0  0
    3.7651    2.6046   -1.5167 H   0  0  0  0  0  0  0  0  0  0  0  0
    2.6016    2.3765    0.5105 H   0  0  0  0  0  0  0  0  0  0  0  0
    1.6824    1.8208   -0.9091 H   0  0  0  0  0  0  0  0  0  0  0  0
    3.4360    0.0631    0.8705 H   0  0  0  0  0  0  0  0  0  0  0  0
    2.8497   -0.4354   -1.7942 H   0  0  0  0  0  0  0  0  0  0  0  0
    4.0940   -1.8060   -0.4739 H   0  0  0  0  0  0  0  0  0  0  0  0
    0.8650   -2.2686   -1.2050 H   0  0  0  0  0  0  0  0  0  0  0  0
    0.4967   -0.6381   -1.7905 H   0  0  0  0  0  0  0  0  0  0  0  0
   -3.8686   -2.2907    0.2204 H   0  0  0  0  0  0  0  0  0  0  0  0
   -0.9176    1.4506    0.2940 H   0  0  0  0  0  0  0  0  0  0  0  0
   -2.7897    3.0442    0.0096 H   0  0  0  0  0  0  0  0  0  0  0  0
   -4.2444    2.4666    0.8570 H   0  0  0  0  0  0  0  0  0  0  0  0
   -4.1523    2.3393   -0.8898 H   0  0  0  0  0  0  0  0  0  0  0  0
    0.9233    0.8557    1.7259 H   0  0  0  0  0  0  0  0  0  0  0  0
    1.7672   -2.1222    1.4330 H   0  0  0  0  0  0  0  0  0  0  0  0
    0.3870   -1.4845    2.4663 H   0  0  0  0  0  0  0  0  0  0  0  0
  1  2  1  0  0  0  0
  2  3  1  0  0  0  0
  2 20  1  0  0  0  0
  3  4  1  6  0  0  0
  3 22  1  0  0  0  0
  4 23  1  6  0  0  0
  4  5  1  0  0  0  0
  5 24  1  0  0  0  0
  6  4  1  0  0  0  0
  6  7  1  0  0  0  0
  7  8  1  0  0  0  0
  7 17  1  1  0  0  0
  7 18  1  0  0  0  0
  9  8  1  0  0  0  0
  9 10  2  0  0  0  0
 11  9  1  0  0  0  0
 12 14  1  0  0  0  0
 12 11  1  0  0  0  0
 13 12  2  0  0  0  0
 14 15  2  0  0  0  0
 15 28  1  0  0  0  0
 15  8  1  0  0  0  0
 16 14  1  0  0  0  0
 16 30  1  0  0  0  0
 17  3  1  6  0  0  0
 17 18  1  0  0  0  0
 17 32  1  0  0  0  0
 18 34  1  0  0  0  0
 19  1  1  0  0  0  0
 21  2  1  0  0  0  0
 25  6  1  0  0  0  0
 26  6  1  0  0  0  0
 27 11  1  0  0  0  0
 29 16  1  0  0  0  0
 31 16  1  0  0  0  0
 33 18  1  0  0  0  0
M  END
