astex_1of1_04.xyz
 OpenBabel12161914463D

 34 36  0  0  1  0  0  0  0  0999 V2000
    1.5038    1.8983   -0.8465 O   0  0  0  0  0  0  0  0  0  0  0  0
    2.6518    1.6072   -0.0613 C   0  0  0  0  0  0  0  0  0  0  0  0
    2.5830    0.1493    0.3604 C   0  0  2  0  0  0  0  0  0  0  0  0
    2.4990   -0.8026   -0.8653 C   0  0  1  0  0  0  0  0  0  0  0  0
    3.2173   -2.0114   -0.6422 O   0  0  0  0  0  0  0  0  0  0  0  0
    1.0151   -1.1797   -1.0187 C   0  0  0  0  0  0  0  0  0  0  0  0
    0.3683   -0.9318    0.3291 C   0  0  2  0  0  0  0  0  0  0  0  0
   -1.0437   -0.6488    0.3685 N   0  0  0  0  0  0  0  0  0  0  0  0
   -1.9212   -1.7253    0.4584 C   0  0  0  0  0  0  0  0  0  0  0  0
   -1.5559   -2.8736    0.5970 O   0  0  0  0  0  0  0  0  0  0  0  0
   -3.2491   -1.3677    0.3827 N   0  0  0  0  0  0  0  0  0  0  0  0
   -3.7958   -0.1037    0.1634 C   0  0  0  0  0  0  0  0  0  0  0  0
   -5.0015    0.0488    0.1065 O   0  0  0  0  0  0  0  0  0  0  0  0
   -2.7992    0.9593    0.0104 C   0  0  0  0  0  0  0  0  0  0  0  0
   -1.4982    0.6359    0.1195 C   0  0  0  0  0  0  0  0  0  0  0  0
   -3.3180    2.3366   -0.2630 C   0  0  0  0  0  0  0  0  0  0  0  0
    1.3282   -0.1396    1.1730 C   0  0  1  0  0  0  0  0  0  0  0  0
    1.0368   -1.5733    1.5030 C   0  0  0  0  0  0  0  0  0  0  0  0
    1.5669    2.8155   -1.1380 H   0  0  0  0  0  0  0  0  0  0  0  0
    2.6845    2.2512    0.8308 H   0  0  0  0  0  0  0  0  0  0  0  0
    3.5732    1.7831   -0.6388 H   0  0  0  0  0  0  0  0  0  0  0  0
    3.4877   -0.0848    0.9399 H   0  0  0  0  0  0  0  0  0  0  0  0
    2.8707   -0.3096   -1.7760 H   0  0  0  0  0  0  0  0  0  0  0  0
    4.1606   -1.8051   -0.6514 H   0  0  0  0  0  0  0  0  0  0  0  0
    0.9251   -2.2262   -1.3302 H   0  0  0  0  0  0  0  0  0  0  0  0
    0.5475   -0.5546   -1.7848 H   0  0  0  0  0  0  0  0  0  0  0  0
   -3.9058   -2.1317    0.4675 H   0  0  0  0  0  0  0  0  0  0  0  0
   -0.7090    1.3719    0.0165 H   0  0  0  0  0  0  0  0  0  0  0  0
   -3.9611    2.3335   -1.1492 H   0  0  0  0  0  0  0  0  0  0  0  0
   -2.5076    3.0582   -0.4216 H   0  0  0  0  0  0  0  0  0  0  0  0
   -3.9411    2.6854    0.5676 H   0  0  0  0  0  0  0  0  0  0  0  0
    0.9731    0.6218    1.8683 H   0  0  0  0  0  0  0  0  0  0  0  0
    0.4204   -1.7617    2.3770 H   0  0  0  0  0  0  0  0  0  0  0  0
    1.7943   -2.3246    1.2962 H   0  0  0  0  0  0  0  0  0  0  0  0
  1  2  1  0  0  0  0
  2  3  1  0  0  0  0
  2 20  1  0  0  0  0
  3  4  1  6  0  0  0
  3 22  1  0  0  0  0
  4 23  1  6  0  0  0
  4  5  1  0  0  0  0
  6  4  1  0  0  0  0
  6  7  1  0  0  0  0
  7  8  1  0  0  0  0
  7 17  1  1  0  0  0
  7 18  1  0  0  0  0
  8  9  1  0  0  0  0
  9 10  2  0  0  0  0
 11  9  1  0  0  0  0
 11 27  1  0  0  0  0
 12 11  1  0  0  0  0
 13 12  2  0  0  0  0
 14 15  2  0  0  0  0
 14 12  1  0  0  0  0
 15  8  1  0  0  0  0
 16 14  1  0  0  0  0
 16 31  1  0  0  0  0
 17  3  1  6  0  0  0
 17 18  1  0  0  0  0
 17 32  1  0  0  0  0
 18 33  1  0  0  0  0
 19  1  1  0  0  0  0
 21  2  1  0  0  0  0
 24  5  1  0  0  0  0
 25  6  1  0  0  0  0
 26  6  1  0  0  0  0
 28 15  1  0  0  0  0
 29 16  1  0  0  0  0
 30 16  1  0  0  0  0
 34 18  1  0  0  0  0
M  END
