astex_1n2j_10.xyz
 OpenBabel12161914463D

 22 21  0  0  1  0  0  0  0  0999 V2000
    2.3248    1.1911   -0.2685 O   0  0  0  0  0  0  0  0  0  0  0  0
    2.1112    0.0088   -0.3622 C   0  0  0  0  0  0  0  0  0  0  0  0
    3.0835   -0.8607   -0.7246 O   0  0  0  0  0  0  0  0  0  0  0  0
    0.8016   -0.7336   -0.0978 C   0  0  2  0  0  0  0  0  0  0  0  0
    0.5208   -1.5720   -1.2000 O   0  0  0  0  0  0  0  0  0  0  0  0
   -0.4126    0.1724    0.1609 C   0  0  0  0  0  0  0  0  0  0  0  0
   -0.1999    0.9919    1.4341 C   0  0  0  0  0  0  0  0  0  0  0  0
   -0.6850    1.0943   -1.0322 C   0  0  0  0  0  0  0  0  0  0  0  0
   -1.6098   -0.7666    0.3512 C   0  0  0  0  0  0  0  0  0  0  0  0
   -2.7493    0.0045    0.6958 O   0  0  0  0  0  0  0  0  0  0  0  0
    3.8813   -0.3281   -0.8838 H   0  0  0  0  0  0  0  0  0  0  0  0
    0.9732   -1.3381    0.8120 H   0  0  0  0  0  0  0  0  0  0  0  0
    1.3506   -2.0017   -1.4442 H   0  0  0  0  0  0  0  0  0  0  0  0
   -0.0046    0.3312    2.2878 H   0  0  0  0  0  0  0  0  0  0  0  0
    0.6478    1.6705    1.3178 H   0  0  0  0  0  0  0  0  0  0  0  0
   -1.0987    1.5739    1.6545 H   0  0  0  0  0  0  0  0  0  0  0  0
   -0.7841    0.5075   -1.9517 H   0  0  0  0  0  0  0  0  0  0  0  0
    0.1295    1.8119   -1.1617 H   0  0  0  0  0  0  0  0  0  0  0  0
   -1.6164    1.6426   -0.8624 H   0  0  0  0  0  0  0  0  0  0  0  0
   -1.3762   -1.4913    1.1504 H   0  0  0  0  0  0  0  0  0  0  0  0
   -1.7753   -1.3246   -0.5799 H   0  0  0  0  0  0  0  0  0  0  0  0
   -3.5125   -0.5843    0.7044 H   0  0  0  0  0  0  0  0  0  0  0  0
  2  1  2  0  0  0  0
  2  4  1  0  0  0  0
  3  2  1  0  0  0  0
  4  6  1  0  0  0  0
  4 12  1  1  0  0  0
  5  4  1  0  0  0  0
  6  9  1  0  0  0  0
  6  7  1  0  0  0  0
  7 16  1  0  0  0  0
  7 14  1  0  0  0  0
  8 19  1  0  0  0  0
  8  6  1  0  0  0  0
  9 10  1  0  0  0  0
  9 20  1  0  0  0  0
 10 22  1  0  0  0  0
 11  3  1  0  0  0  0
 13  5  1  0  0  0  0
 15  7  1  0  0  0  0
 17  8  1  0  0  0  0
 18  8  1  0  0  0  0
 21  9  1  0  0  0  0
M  END
