astex_1meh_07.xyz
 OpenBabel12161914463D

 43 44  0  0  0  0  0  0  0  0999 V2000
   -3.1679    2.4477    1.2963 C   0  0  0  0  0  0  0  0  0  0  0  0
   -3.4009    2.6729    2.4614 O   0  0  0  0  0  0  0  0  0  0  0  0
   -2.3664    1.3582    0.7456 C   0  0  0  0  0  0  0  0  0  0  0  0
   -2.3504    1.4735   -0.6321 C   0  0  0  0  0  0  0  0  0  0  0  0
   -3.1756    2.6860   -0.9881 C   0  0  0  0  0  0  0  0  0  0  0  0
   -3.6276    3.2031    0.2710 O   0  0  0  0  0  0  0  0  0  0  0  0
   -1.6618    0.5624   -1.4187 C   0  0  0  0  0  0  0  0  0  0  0  0
   -1.6206    0.6782   -2.9203 C   0  0  0  0  0  0  0  0  0  0  0  0
   -1.0160   -0.4804   -0.7277 C   0  0  0  0  0  0  0  0  0  0  0  0
   -1.0017   -0.6136    0.6717 C   0  0  0  0  0  0  0  0  0  0  0  0
   -1.6938    0.3433    1.4221 C   0  0  0  0  0  0  0  0  0  0  0  0
   -1.7089    0.2605    2.7678 O   0  0  0  0  0  0  0  0  0  0  0  0
   -0.2322   -1.7209    1.3700 C   0  0  0  0  0  0  0  0  0  0  0  0
    1.1210   -1.2506    1.8505 C   0  0  0  0  0  0  0  0  0  0  0  0
    2.2808   -1.3283    1.1868 C   0  0  0  0  0  0  0  0  0  0  0  0
    3.4659   -0.5006    1.6400 C   0  0  0  0  0  0  0  0  0  0  0  0
    3.8302    0.6507    0.6854 C   0  0  0  0  0  0  0  0  0  0  0  0
    2.9105    1.8693    0.6832 C   0  0  0  0  0  0  0  0  0  0  0  0
    3.3425    2.9898    0.5962 O   0  0  0  0  0  0  0  0  0  0  0  0
    1.5809    1.6654    0.7470 O   0  0  0  0  0  0  0  0  0  0  0  0
    2.4717   -2.1361   -0.0754 C   0  0  0  0  0  0  0  0  0  0  0  0
   -0.3380   -1.4331   -1.4660 O   0  0  0  0  0  0  0  0  0  0  0  0
   -1.1796   -2.4922   -1.8902 C   0  0  0  0  0  0  0  0  0  0  0  0
   -4.0545    2.4419   -1.5936 H   0  0  0  0  0  0  0  0  0  0  0  0
   -2.6019    3.4701   -1.4930 H   0  0  0  0  0  0  0  0  0  0  0  0
   -2.5818    0.4052   -3.3775 H   0  0  0  0  0  0  0  0  0  0  0  0
   -0.8473    0.0229   -3.3279 H   0  0  0  0  0  0  0  0  0  0  0  0
   -1.4081    1.7074   -3.2332 H   0  0  0  0  0  0  0  0  0  0  0  0
   -2.2507    1.0015    3.1007 H   0  0  0  0  0  0  0  0  0  0  0  0
   -0.8062   -2.0580    2.2378 H   0  0  0  0  0  0  0  0  0  0  0  0
   -0.1188   -2.5706    0.6914 H   0  0  0  0  0  0  0  0  0  0  0  0
    1.1140   -0.7250    2.8087 H   0  0  0  0  0  0  0  0  0  0  0  0
    3.2908   -0.1039    2.6491 H   0  0  0  0  0  0  0  0  0  0  0  0
    4.3392   -1.1585    1.7107 H   0  0  0  0  0  0  0  0  0  0  0  0
    3.8791    0.2730   -0.3463 H   0  0  0  0  0  0  0  0  0  0  0  0
    4.8236    1.0388    0.9209 H   0  0  0  0  0  0  0  0  0  0  0  0
    1.3641    0.7178    0.8081 H   0  0  0  0  0  0  0  0  0  0  0  0
    3.5195   -2.4391   -0.1831 H   0  0  0  0  0  0  0  0  0  0  0  0
    2.1930   -1.5565   -0.9637 H   0  0  0  0  0  0  0  0  0  0  0  0
    1.8571   -3.0418   -0.0730 H   0  0  0  0  0  0  0  0  0  0  0  0
   -1.6624   -2.9816   -1.0338 H   0  0  0  0  0  0  0  0  0  0  0  0
   -1.9634   -2.1355   -2.5709 H   0  0  0  0  0  0  0  0  0  0  0  0
   -0.5477   -3.2133   -2.4128 H   0  0  0  0  0  0  0  0  0  0  0  0
  1  2  2  0  0  0  0
  3  1  1  0  0  0  0
  3 11  1  0  0  0  0
  4  3  2  0  0  0  0
  5  4  1  0  0  0  0
  5  6  1  0  0  0  0
  6  1  1  0  0  0  0
  7  9  2  0  0  0  0
  7  4  1  0  0  0  0
  8  7  1  0  0  0  0
  9 10  1  0  0  0  0
 10 13  1  0  0  0  0
 10 11  2  0  0  0  0
 11 12  1  0  0  0  0
 12 29  1  0  0  0  0
 13 14  1  0  0  0  0
 13 30  1  0  0  0  0
 14 32  1  0  0  0  0
 15 16  1  0  0  0  0
 15 14  2  0  0  0  0
 16 34  1  0  0  0  0
 16 33  1  0  0  0  0
 17 36  1  0  0  0  0
 17 16  1  0  0  0  0
 18 17  1  0  0  0  0
 18 20  1  0  0  0  0
 19 18  2  0  0  0  0
 20 37  1  0  0  0  0
 21 40  1  0  0  0  0
 21 15  1  0  0  0  0
 22  9  1  0  0  0  0
 23 22  1  0  0  0  0
 23 41  1  0  0  0  0
 24  5  1  0  0  0  0
 25  5  1  0  0  0  0
 26  8  1  0  0  0  0
 27  8  1  0  0  0  0
 28  8  1  0  0  0  0
 31 13  1  0  0  0  0
 35 17  1  0  0  0  0
 38 21  1  0  0  0  0
 39 21  1  0  0  0  0
 42 23  1  0  0  0  0
 43 23  1  0  0  0  0
M  END
