astex_1meh_04.xyz
 OpenBabel12161914463D

 43 44  0  0  0  0  0  0  0  0999 V2000
   -2.8756    2.5425    0.9236 C   0  0  0  0  0  0  0  0  0  0  0  0
   -2.6878    2.9145    2.0591 O   0  0  0  0  0  0  0  0  0  0  0  0
   -2.3170    1.3595    0.2712 C   0  0  0  0  0  0  0  0  0  0  0  0
   -2.7689    1.3220   -1.0356 C   0  0  0  0  0  0  0  0  0  0  0  0
   -3.6756    2.5141   -1.2283 C   0  0  0  0  0  0  0  0  0  0  0  0
   -3.6611    3.1937    0.0342 O   0  0  0  0  0  0  0  0  0  0  0  0
   -2.3639    0.3199   -1.9033 C   0  0  0  0  0  0  0  0  0  0  0  0
   -2.8156    0.2816   -3.3410 C   0  0  0  0  0  0  0  0  0  0  0  0
   -1.5028   -0.6521   -1.3609 C   0  0  0  0  0  0  0  0  0  0  0  0
   -1.0118   -0.6266   -0.0448 C   0  0  0  0  0  0  0  0  0  0  0  0
   -1.4403    0.4101    0.7892 C   0  0  0  0  0  0  0  0  0  0  0  0
   -0.9950    0.4864    2.0612 O   0  0  0  0  0  0  0  0  0  0  0  0
    0.0222   -1.6280    0.4328 C   0  0  0  0  0  0  0  0  0  0  0  0
    1.4318   -1.1601    0.1677 C   0  0  0  0  0  0  0  0  0  0  0  0
    2.4623   -1.1323    1.0247 C   0  0  0  0  0  0  0  0  0  0  0  0
    3.7662   -0.4942    0.5984 C   0  0  0  0  0  0  0  0  0  0  0  0
    3.9408    0.9648    1.0439 C   0  0  0  0  0  0  0  0  0  0  0  0
    4.2947    1.1228    2.5027 C   0  0  0  0  0  0  0  0  0  0  0  0
    4.7156    0.2543    3.2309 O   0  0  0  0  0  0  0  0  0  0  0  0
    4.1256    2.3928    2.9228 O   0  0  0  0  0  0  0  0  0  0  0  0
    2.3572   -1.6605    2.4328 C   0  0  0  0  0  0  0  0  0  0  0  0
   -1.0666   -1.6751   -2.1763 O   0  0  0  0  0  0  0  0  0  0  0  0
   -1.9955   -2.7386   -2.2935 C   0  0  0  0  0  0  0  0  0  0  0  0
   -3.3191    3.2090   -1.9955 H   0  0  0  0  0  0  0  0  0  0  0  0
   -4.7108    2.2368   -1.4534 H   0  0  0  0  0  0  0  0  0  0  0  0
   -2.1310   -0.3271   -3.9379 H   0  0  0  0  0  0  0  0  0  0  0  0
   -2.8512    1.2904   -3.7672 H   0  0  0  0  0  0  0  0  0  0  0  0
   -3.8263   -0.1375   -3.4432 H   0  0  0  0  0  0  0  0  0  0  0  0
   -1.3921    1.2832    2.4627 H   0  0  0  0  0  0  0  0  0  0  0  0
   -0.1297   -1.8475    1.4939 H   0  0  0  0  0  0  0  0  0  0  0  0
   -0.1354   -2.5560   -0.1269 H   0  0  0  0  0  0  0  0  0  0  0  0
    1.5966   -0.8168   -0.8548 H   0  0  0  0  0  0  0  0  0  0  0  0
    4.6060   -1.0676    1.0041 H   0  0  0  0  0  0  0  0  0  0  0  0
    3.8438   -0.5326   -0.4953 H   0  0  0  0  0  0  0  0  0  0  0  0
    4.7646    1.4293    0.4839 H   0  0  0  0  0  0  0  0  0  0  0  0
    3.0518    1.5696    0.8341 H   0  0  0  0  0  0  0  0  0  0  0  0
    4.4002    2.4074    3.8545 H   0  0  0  0  0  0  0  0  0  0  0  0
    3.3421   -1.9124    2.8323 H   0  0  0  0  0  0  0  0  0  0  0  0
    1.7195   -2.5507    2.4748 H   0  0  0  0  0  0  0  0  0  0  0  0
    1.9226   -0.9104    3.1065 H   0  0  0  0  0  0  0  0  0  0  0  0
   -2.9380   -2.4094   -2.7495 H   0  0  0  0  0  0  0  0  0  0  0  0
   -2.2232   -3.1748   -1.3104 H   0  0  0  0  0  0  0  0  0  0  0  0
   -1.5293   -3.4944   -2.9290 H   0  0  0  0  0  0  0  0  0  0  0  0
  1  2  2  0  0  0  0
  3 11  1  0  0  0  0
  3  1  1  0  0  0  0
  4  3  2  0  0  0  0
  5  4  1  0  0  0  0
  5  6  1  0  0  0  0
  6  1  1  0  0  0  0
  7  9  2  0  0  0  0
  7  4  1  0  0  0  0
  8  7  1  0  0  0  0
  9 10  1  0  0  0  0
 10 13  1  0  0  0  0
 10 11  2  0  0  0  0
 11 12  1  0  0  0  0
 12 29  1  0  0  0  0
 13 30  1  0  0  0  0
 14 13  1  0  0  0  0
 14 15  2  0  0  0  0
 15 21  1  0  0  0  0
 16 33  1  0  0  0  0
 16 15  1  0  0  0  0
 16 17  1  0  0  0  0
 17 18  1  0  0  0  0
 18 20  1  0  0  0  0
 18 19  2  0  0  0  0
 20 37  1  0  0  0  0
 21 39  1  0  0  0  0
 21 38  1  0  0  0  0
 21 40  1  0  0  0  0
 22  9  1  0  0  0  0
 23 22  1  0  0  0  0
 23 42  1  0  0  0  0
 24  5  1  0  0  0  0
 25  5  1  0  0  0  0
 26  8  1  0  0  0  0
 27  8  1  0  0  0  0
 28  8  1  0  0  0  0
 31 13  1  0  0  0  0
 32 14  1  0  0  0  0
 34 16  1  0  0  0  0
 35 17  1  0  0  0  0
 36 17  1  0  0  0  0
 41 23  1  0  0  0  0
 43 23  1  0  0  0  0
M  END
