astex_1meh_09.xyz
 OpenBabel12161914463D

 43 44  0  0  0  0  0  0  0  0999 V2000
   -3.1595    3.0803    0.8597 C   0  0  0  0  0  0  0  0  0  0  0  0
   -2.7760    3.8564    1.6874 O   0  0  0  0  0  0  0  0  0  0  0  0
   -2.4274    2.0420    0.1050 C   0  0  0  0  0  0  0  0  0  0  0  0
   -3.3245    1.4068   -0.7422 C   0  0  0  0  0  0  0  0  0  0  0  0
   -4.6776    2.0375   -0.5407 C   0  0  0  0  0  0  0  0  0  0  0  0
   -4.4644    3.0398    0.4487 O   0  0  0  0  0  0  0  0  0  0  0  0
   -2.9435    0.3728   -1.5822 C   0  0  0  0  0  0  0  0  0  0  0  0
   -3.9248   -0.3240   -2.4888 C   0  0  0  0  0  0  0  0  0  0  0  0
   -1.5892    0.0093   -1.5340 C   0  0  0  0  0  0  0  0  0  0  0  0
   -0.6365    0.6609   -0.7370 C   0  0  0  0  0  0  0  0  0  0  0  0
   -1.0854    1.6624    0.1389 C   0  0  0  0  0  0  0  0  0  0  0  0
   -0.2385    2.2755    0.9980 O   0  0  0  0  0  0  0  0  0  0  0  0
    0.8497    0.3395   -0.8518 C   0  0  0  0  0  0  0  0  0  0  0  0
    1.4374   -0.2446    0.4118 C   0  0  0  0  0  0  0  0  0  0  0  0
    2.5221    0.1425    1.0900 C   0  0  0  0  0  0  0  0  0  0  0  0
    2.8236   -0.4370    2.4580 C   0  0  0  0  0  0  0  0  0  0  0  0
    4.0394   -1.3685    2.4836 C   0  0  0  0  0  0  0  0  0  0  0  0
    3.7509   -2.7083    1.8495 C   0  0  0  0  0  0  0  0  0  0  0  0
    2.6531   -3.1673    1.6344 O   0  0  0  0  0  0  0  0  0  0  0  0
    4.8804   -3.3873    1.5685 O   0  0  0  0  0  0  0  0  0  0  0  0
    3.5243    1.1484    0.5801 C   0  0  0  0  0  0  0  0  0  0  0  0
   -1.1713   -1.0343   -2.3311 O   0  0  0  0  0  0  0  0  0  0  0  0
   -1.2457   -2.2873   -1.6736 C   0  0  0  0  0  0  0  0  0  0  0  0
   -5.0668    2.5172   -1.4456 H   0  0  0  0  0  0  0  0  0  0  0  0
   -5.4248    1.3278   -0.1672 H   0  0  0  0  0  0  0  0  0  0  0  0
   -4.6294   -0.9480   -1.9223 H   0  0  0  0  0  0  0  0  0  0  0  0
   -4.5273    0.3983   -3.0516 H   0  0  0  0  0  0  0  0  0  0  0  0
   -3.3921   -0.9600   -3.1988 H   0  0  0  0  0  0  0  0  0  0  0  0
    0.5677    1.7358    1.0587 H   0  0  0  0  0  0  0  0  0  0  0  0
    0.9747   -0.3772   -1.6676 H   0  0  0  0  0  0  0  0  0  0  0  0
    1.3973    1.2436   -1.1526 H   0  0  0  0  0  0  0  0  0  0  0  0
    0.8637   -1.0902    0.7963 H   0  0  0  0  0  0  0  0  0  0  0  0
    1.9600   -0.9989    2.8304 H   0  0  0  0  0  0  0  0  0  0  0  0
    3.0065    0.3891    3.1553 H   0  0  0  0  0  0  0  0  0  0  0  0
    4.3387   -1.5707    3.5201 H   0  0  0  0  0  0  0  0  0  0  0  0
    4.9106   -0.9226    1.9936 H   0  0  0  0  0  0  0  0  0  0  0  0
    4.5955   -4.2353    1.1888 H   0  0  0  0  0  0  0  0  0  0  0  0
    3.6352    1.9775    1.2894 H   0  0  0  0  0  0  0  0  0  0  0  0
    4.5161    0.6974    0.4623 H   0  0  0  0  0  0  0  0  0  0  0  0
    3.2388    1.5609   -0.3905 H   0  0  0  0  0  0  0  0  0  0  0  0
   -0.8924   -3.0383   -2.3830 H   0  0  0  0  0  0  0  0  0  0  0  0
   -2.2766   -2.5220   -1.3766 H   0  0  0  0  0  0  0  0  0  0  0  0
   -0.6116   -2.3002   -0.7757 H   0  0  0  0  0  0  0  0  0  0  0  0
  1  2  2  0  0  0  0
  3 11  1  0  0  0  0
  3  1  1  0  0  0  0
  4  5  1  0  0  0  0
  4  3  2  0  0  0  0
  5 25  1  0  0  0  0
  5  6  1  0  0  0  0
  6  1  1  0  0  0  0
  7  9  2  0  0  0  0
  7  4  1  0  0  0  0
  8 26  1  0  0  0  0
  8  7  1  0  0  0  0
  9 10  1  0  0  0  0
 10 11  2  0  0  0  0
 11 12  1  0  0  0  0
 12 29  1  0  0  0  0
 13 10  1  0  0  0  0
 13 14  1  0  0  0  0
 14 32  1  0  0  0  0
 14 15  2  0  0  0  0
 15 16  1  0  0  0  0
 16 17  1  0  0  0  0
 16 33  1  0  0  0  0
 16 34  1  0  0  0  0
 17 35  1  0  0  0  0
 18 17  1  0  0  0  0
 19 18  2  0  0  0  0
 20 18  1  0  0  0  0
 21 15  1  0  0  0  0
 21 38  1  0  0  0  0
 22 23  1  0  0  0  0
 22  9  1  0  0  0  0
 23 42  1  0  0  0  0
 23 43  1  0  0  0  0
 24  5  1  0  0  0  0
 27  8  1  0  0  0  0
 28  8  1  0  0  0  0
 30 13  1  0  0  0  0
 31 13  1  0  0  0  0
 36 17  1  0  0  0  0
 37 20  1  0  0  0  0
 39 21  1  0  0  0  0
 40 21  1  0  0  0  0
 41 23  1  0  0  0  0
M  END
