astex_1n2j_16.xyz
 OpenBabel12161914463D

 22 21  0  0  1  0  0  0  0  0999 V2000
    2.1639    1.6283   -0.2673 O   0  0  0  0  0  0  0  0  0  0  0  0
    2.1711    0.4278   -0.3599 C   0  0  0  0  0  0  0  0  0  0  0  0
    3.2036   -0.2254   -0.9090 O   0  0  0  0  0  0  0  0  0  0  0  0
    1.0610   -0.5105    0.1476 C   0  0  2  0  0  0  0  0  0  0  0  0
    1.1231   -1.7192   -0.6094 O   0  0  0  0  0  0  0  0  0  0  0  0
   -0.3505    0.1184    0.2069 C   0  0  0  0  0  0  0  0  0  0  0  0
   -0.3851    1.2351    1.2546 C   0  0  0  0  0  0  0  0  0  0  0  0
   -0.7787    0.6789   -1.1561 C   0  0  0  0  0  0  0  0  0  0  0  0
   -1.3284   -0.9946    0.6354 C   0  0  0  0  0  0  0  0  0  0  0  0
   -2.6571   -0.5343    0.8014 O   0  0  0  0  0  0  0  0  0  0  0  0
    2.9500   -1.1670   -0.9487 H   0  0  0  0  0  0  0  0  0  0  0  0
    1.3418   -0.8112    1.1654 H   0  0  0  0  0  0  0  0  0  0  0  0
    0.7185   -1.5493   -1.4717 H   0  0  0  0  0  0  0  0  0  0  0  0
    0.2425    2.0755    0.9541 H   0  0  0  0  0  0  0  0  0  0  0  0
   -1.4157    1.5793    1.3845 H   0  0  0  0  0  0  0  0  0  0  0  0
   -0.0301    0.8681    2.2260 H   0  0  0  0  0  0  0  0  0  0  0  0
   -0.8566   -0.1030   -1.9235 H   0  0  0  0  0  0  0  0  0  0  0  0
   -1.7628    1.1555   -1.0769 H   0  0  0  0  0  0  0  0  0  0  0  0
   -0.0724    1.4377   -1.5068 H   0  0  0  0  0  0  0  0  0  0  0  0
   -1.2922   -1.8268   -0.0816 H   0  0  0  0  0  0  0  0  0  0  0  0
   -1.0235   -1.3899    1.6122 H   0  0  0  0  0  0  0  0  0  0  0  0
   -3.0227   -0.3737   -0.0769 H   0  0  0  0  0  0  0  0  0  0  0  0
  2  1  2  0  0  0  0
  2  4  1  0  0  0  0
  3  2  1  0  0  0  0
  4  6  1  0  0  0  0
  4 12  1  1  0  0  0
  5  4  1  0  0  0  0
  6  9  1  0  0  0  0
  6  7  1  0  0  0  0
  7 15  1  0  0  0  0
  7 16  1  0  0  0  0
  8 18  1  0  0  0  0
  8  6  1  0  0  0  0
  9 10  1  0  0  0  0
  9 21  1  0  0  0  0
 11  3  1  0  0  0  0
 13  5  1  0  0  0  0
 14  7  1  0  0  0  0
 17  8  1  0  0  0  0
 19  8  1  0  0  0  0
 20  9  1  0  0  0  0
 22 10  1  0  0  0  0
M  END
