astex_1of1_12.xyz
 OpenBabel12161914463D

 34 36  0  0  1  0  0  0  0  0999 V2000
    2.8623    1.7613   -1.4346 O   0  0  0  0  0  0  0  0  0  0  0  0
    3.6076    1.0381   -0.4700 C   0  0  0  0  0  0  0  0  0  0  0  0
    2.6820    0.0230    0.1789 C   0  0  2  0  0  0  0  0  0  0  0  0
    2.2316   -1.0904   -0.7908 C   0  0  1  0  0  0  0  0  0  0  0  0
    3.2220   -2.0526   -1.0718 O   0  0  0  0  0  0  0  0  0  0  0  0
    0.9260   -1.6364   -0.1858 C   0  0  0  0  0  0  0  0  0  0  0  0
    0.2854   -0.4306    0.4837 C   0  0  2  0  0  0  0  0  0  0  0  0
   -1.0374   -0.0223    0.0722 N   0  0  0  0  0  0  0  0  0  0  0  0
   -1.1786    0.4128   -1.2391 C   0  0  0  0  0  0  0  0  0  0  0  0
   -0.2510    0.4771   -2.0220 O   0  0  0  0  0  0  0  0  0  0  0  0
   -2.4605    0.7672   -1.5850 N   0  0  0  0  0  0  0  0  0  0  0  0
   -3.6151    0.6971   -0.8069 C   0  0  0  0  0  0  0  0  0  0  0  0
   -4.6905    1.0438   -1.2577 O   0  0  0  0  0  0  0  0  0  0  0  0
   -3.3878    0.1790    0.5468 C   0  0  0  0  0  0  0  0  0  0  0  0
   -2.1382   -0.1605    0.9032 C   0  0  0  0  0  0  0  0  0  0  0  0
   -4.5861    0.0779    1.4383 C   0  0  0  0  0  0  0  0  0  0  0  0
    1.3764    0.5973    0.7151 C   0  0  1  0  0  0  0  0  0  0  0  0
    0.7490   -0.1331    1.8729 C   0  0  0  0  0  0  0  0  0  0  0  0
    3.4434    2.4115   -1.8437 H   0  0  0  0  0  0  0  0  0  0  0  0
    4.4549    0.5157   -0.9396 H   0  0  0  0  0  0  0  0  0  0  0  0
    4.0074    1.7156    0.3002 H   0  0  0  0  0  0  0  0  0  0  0  0
    3.2455   -0.4494    1.0031 H   0  0  0  0  0  0  0  0  0  0  0  0
    1.9748   -0.6207   -1.7430 H   0  0  0  0  0  0  0  0  0  0  0  0
    3.4281   -2.5065   -0.2438 H   0  0  0  0  0  0  0  0  0  0  0  0
    1.1480   -2.4105    0.5639 H   0  0  0  0  0  0  0  0  0  0  0  0
    0.2971   -2.0904   -0.9544 H   0  0  0  0  0  0  0  0  0  0  0  0
   -2.5718    1.0972   -2.5344 H   0  0  0  0  0  0  0  0  0  0  0  0
   -1.9140   -0.5737    1.8808 H   0  0  0  0  0  0  0  0  0  0  0  0
   -4.3339   -0.3280    2.4247 H   0  0  0  0  0  0  0  0  0  0  0  0
   -5.0484    1.0616    1.5735 H   0  0  0  0  0  0  0  0  0  0  0  0
   -5.3501   -0.5597    0.9819 H   0  0  0  0  0  0  0  0  0  0  0  0
    1.1940    1.6656    0.6192 H   0  0  0  0  0  0  0  0  0  0  0  0
    1.3440   -0.8932    2.3767 H   0  0  0  0  0  0  0  0  0  0  0  0
    0.0834    0.4156    2.5357 H   0  0  0  0  0  0  0  0  0  0  0  0
  1  2  1  0  0  0  0
  2  3  1  0  0  0  0
  2 21  1  0  0  0  0
  3  4  1  6  0  0  0
  3 22  1  0  0  0  0
  4 23  1  6  0  0  0
  4  6  1  0  0  0  0
  5  4  1  0  0  0  0
  5 24  1  0  0  0  0
  6  7  1  0  0  0  0
  6 25  1  0  0  0  0
  7 17  1  6  0  0  0
  7 18  1  0  0  0  0
  8  7  1  0  0  0  0
  8 15  1  0  0  0  0
  9  8  1  0  0  0  0
 10  9  2  0  0  0  0
 11  9  1  0  0  0  0
 11 12  1  0  0  0  0
 12 14  1  0  0  0  0
 13 12  2  0  0  0  0
 14 15  2  0  0  0  0
 14 16  1  0  0  0  0
 15 28  1  0  0  0  0
 16 30  1  0  0  0  0
 16 29  1  0  0  0  0
 17  3  1  6  0  0  0
 17 18  1  0  0  0  0
 18 33  1  0  0  0  0
 18 34  1  0  0  0  0
 19  1  1  0  0  0  0
 20  2  1  0  0  0  0
 26  6  1  0  0  0  0
 27 11  1  0  0  0  0
 31 16  1  0  0  0  0
 32 17  1  0  0  0  0
M  END
