astex_1of1_06.xyz
 OpenBabel12161914463D

 34 36  0  0  1  0  0  0  0  0999 V2000
    4.5616    0.7304   -1.0572 O   0  0  0  0  0  0  0  0  0  0  0  0
    3.4233    1.2155   -0.3494 C   0  0  0  0  0  0  0  0  0  0  0  0
    2.5965    0.0790    0.2411 C   0  0  2  0  0  0  0  0  0  0  0  0
    2.1281   -0.8911   -0.8695 C   0  0  1  0  0  0  0  0  0  0  0  0
    3.0997   -1.8388   -1.2306 O   0  0  0  0  0  0  0  0  0  0  0  0
    0.8530   -1.5402   -0.3253 C   0  0  0  0  0  0  0  0  0  0  0  0
    0.2133   -0.4391    0.5082 C   0  0  2  0  0  0  0  0  0  0  0  0
   -1.0835    0.0671    0.1317 N   0  0  0  0  0  0  0  0  0  0  0  0
   -1.1452    0.8280   -1.0295 C   0  0  0  0  0  0  0  0  0  0  0  0
   -0.1625    1.1365   -1.6778 O   0  0  0  0  0  0  0  0  0  0  0  0
   -2.4171    1.2133   -1.3818 N   0  0  0  0  0  0  0  0  0  0  0  0
   -3.6206    0.8971   -0.7509 C   0  0  0  0  0  0  0  0  0  0  0  0
   -4.6763    1.3202   -1.1824 O   0  0  0  0  0  0  0  0  0  0  0  0
   -3.4680    0.0366    0.4277 C   0  0  0  0  0  0  0  0  0  0  0  0
   -2.2299   -0.3240    0.8026 C   0  0  0  0  0  0  0  0  0  0  0  0
   -4.7233   -0.3714    1.1310 C   0  0  0  0  0  0  0  0  0  0  0  0
    1.3064    0.5295    0.9040 C   0  0  1  0  0  0  0  0  0  0  0  0
    0.6689   -0.3740    1.9297 C   0  0  0  0  0  0  0  0  0  0  0  0
    5.2513    0.5318   -0.4110 H   0  0  0  0  0  0  0  0  0  0  0  0
    2.8103    1.7480   -1.0891 H   0  0  0  0  0  0  0  0  0  0  0  0
    3.7156    1.9446    0.4190 H   0  0  0  0  0  0  0  0  0  0  0  0
    3.2237   -0.4875    0.9513 H   0  0  0  0  0  0  0  0  0  0  0  0
    1.8219   -0.2724   -1.7298 H   0  0  0  0  0  0  0  0  0  0  0  0
    3.8616   -1.3207   -1.5352 H   0  0  0  0  0  0  0  0  0  0  0  0
    0.2079   -1.9036   -1.1282 H   0  0  0  0  0  0  0  0  0  0  0  0
    1.1207   -2.4014    0.2988 H   0  0  0  0  0  0  0  0  0  0  0  0
   -2.4776    1.7879   -2.2118 H   0  0  0  0  0  0  0  0  0  0  0  0
   -2.0471   -0.9481    1.6714 H   0  0  0  0  0  0  0  0  0  0  0  0
   -4.5204   -1.0380    1.9761 H   0  0  0  0  0  0  0  0  0  0  0  0
   -5.4024   -0.8801    0.4395 H   0  0  0  0  0  0  0  0  0  0  0  0
   -5.2612    0.5081    1.4995 H   0  0  0  0  0  0  0  0  0  0  0  0
    1.1132    1.5958    1.0072 H   0  0  0  0  0  0  0  0  0  0  0  0
    0.0060    0.0750    2.6660 H   0  0  0  0  0  0  0  0  0  0  0  0
    1.2521   -1.2141    2.3031 H   0  0  0  0  0  0  0  0  0  0  0  0
  1 19  1  0  0  0  0
  1  2  1  0  0  0  0
  2  3  1  0  0  0  0
  2 21  1  0  0  0  0
  3  4  1  6  0  0  0
  3 22  1  0  0  0  0
  4 23  1  6  0  0  0
  4  6  1  0  0  0  0
  5  4  1  0  0  0  0
  6 26  1  0  0  0  0
  6  7  1  0  0  0  0
  7 17  1  6  0  0  0
  7 18  1  0  0  0  0
  8  7  1  0  0  0  0
  8 15  1  0  0  0  0
  9  8  1  0  0  0  0
 10  9  2  0  0  0  0
 11  9  1  0  0  0  0
 11 12  1  0  0  0  0
 12 14  1  0  0  0  0
 13 12  2  0  0  0  0
 14 15  2  0  0  0  0
 14 16  1  0  0  0  0
 15 28  1  0  0  0  0
 16 31  1  0  0  0  0
 16 29  1  0  0  0  0
 17  3  1  6  0  0  0
 17 32  1  0  0  0  0
 17 18  1  0  0  0  0
 18 34  1  0  0  0  0
 18 33  1  0  0  0  0
 20  2  1  0  0  0  0
 24  5  1  0  0  0  0
 25  6  1  0  0  0  0
 27 11  1  0  0  0  0
 30 16  1  0  0  0  0
M  END
