astex_1n2j_17.xyz
 OpenBabel12161914463D

 22 21  0  0  1  0  0  0  0  0999 V2000
    2.5945   -0.1627    1.3409 O   0  0  0  0  0  0  0  0  0  0  0  0
    1.9970   -0.7154    0.4516 C   0  0  0  0  0  0  0  0  0  0  0  0
    2.0468   -2.0510    0.3171 O   0  0  0  0  0  0  0  0  0  0  0  0
    1.1504    0.0702   -0.5615 C   0  0  2  0  0  0  0  0  0  0  0  0
    1.6639    1.3759   -0.6432 O   0  0  0  0  0  0  0  0  0  0  0  0
   -0.3647    0.0831   -0.2127 C   0  0  0  0  0  0  0  0  0  0  0  0
   -0.9189   -1.3418   -0.1358 C   0  0  0  0  0  0  0  0  0  0  0  0
   -1.0853    0.8559   -1.3212 C   0  0  0  0  0  0  0  0  0  0  0  0
   -0.5904    0.8044    1.1224 C   0  0  0  0  0  0  0  0  0  0  0  0
   -1.9813    0.8012    1.3963 O   0  0  0  0  0  0  0  0  0  0  0  0
    1.5157   -2.3339   -0.4407 H   0  0  0  0  0  0  0  0  0  0  0  0
    1.2614   -0.4001   -1.5498 H   0  0  0  0  0  0  0  0  0  0  0  0
    2.0903    1.5401    0.2133 H   0  0  0  0  0  0  0  0  0  0  0  0
   -0.7005   -1.8955   -1.0581 H   0  0  0  0  0  0  0  0  0  0  0  0
   -2.0047   -1.3065   -0.0185 H   0  0  0  0  0  0  0  0  0  0  0  0
   -0.5122   -1.9018    0.7138 H   0  0  0  0  0  0  0  0  0  0  0  0
   -0.9749    0.3436   -2.2845 H   0  0  0  0  0  0  0  0  0  0  0  0
   -2.1512    0.9358   -1.0952 H   0  0  0  0  0  0  0  0  0  0  0  0
   -0.6662    1.8612   -1.4194 H   0  0  0  0  0  0  0  0  0  0  0  0
   -0.2120    1.8370    1.0421 H   0  0  0  0  0  0  0  0  0  0  0  0
   -0.0361    0.3027    1.9326 H   0  0  0  0  0  0  0  0  0  0  0  0
   -2.1214    1.2977    2.2104 H   0  0  0  0  0  0  0  0  0  0  0  0
  2  1  2  0  0  0  0
  3  2  1  0  0  0  0
  4 12  1  6  0  0  0
  4  6  1  0  0  0  0
  4  2  1  0  0  0  0
  5  4  1  0  0  0  0
  5 13  1  0  0  0  0
  6  7  1  0  0  0  0
  6  9  1  0  0  0  0
  7 15  1  0  0  0  0
  7 16  1  0  0  0  0
  8 18  1  0  0  0  0
  8  6  1  0  0  0  0
  9 10  1  0  0  0  0
  9 21  1  0  0  0  0
 10 22  1  0  0  0  0
 11  3  1  0  0  0  0
 14  7  1  0  0  0  0
 17  8  1  0  0  0  0
 19  8  1  0  0  0  0
 20  9  1  0  0  0  0
M  END
