astex_1n2j_13.xyz
 OpenBabel12161914463D

 22 21  0  0  1  0  0  0  0  0999 V2000
    1.8382   -2.3771   -0.1015 O   0  0  0  0  0  0  0  0  0  0  0  0
    1.6870   -1.2384    0.2604 C   0  0  0  0  0  0  0  0  0  0  0  0
    2.1357   -0.8081    1.4447 O   0  0  0  0  0  0  0  0  0  0  0  0
    0.9856   -0.2098   -0.6343 C   0  0  2  0  0  0  0  0  0  0  0  0
    1.7140    1.0062   -0.6790 O   0  0  0  0  0  0  0  0  0  0  0  0
   -0.4761    0.1172   -0.2499 C   0  0  0  0  0  0  0  0  0  0  0  0
   -1.2022   -1.1760    0.1228 C   0  0  0  0  0  0  0  0  0  0  0  0
   -1.1455    0.7498   -1.4778 C   0  0  0  0  0  0  0  0  0  0  0  0
   -0.5782    1.1609    0.8723 C   0  0  0  0  0  0  0  0  0  0  0  0
    0.0781    0.8202    2.0886 O   0  0  0  0  0  0  0  0  0  0  0  0
    1.7439    0.0679    1.6349 H   0  0  0  0  0  0  0  0  0  0  0  0
    0.9524   -0.6899   -1.6235 H   0  0  0  0  0  0  0  0  0  0  0  0
    2.5867    0.8178   -1.0463 H   0  0  0  0  0  0  0  0  0  0  0  0
   -2.2636   -0.9781    0.3130 H   0  0  0  0  0  0  0  0  0  0  0  0
   -1.1360   -1.9011   -0.6971 H   0  0  0  0  0  0  0  0  0  0  0  0
   -0.7812   -1.6518    1.0157 H   0  0  0  0  0  0  0  0  0  0  0  0
   -1.1718    0.0447   -2.3171 H   0  0  0  0  0  0  0  0  0  0  0  0
   -0.6019    1.6447   -1.7991 H   0  0  0  0  0  0  0  0  0  0  0  0
   -2.1781    1.0333   -1.2460 H   0  0  0  0  0  0  0  0  0  0  0  0
   -0.1184    2.0937    0.5401 H   0  0  0  0  0  0  0  0  0  0  0  0
   -1.6441    1.3605    1.0647 H   0  0  0  0  0  0  0  0  0  0  0  0
   -0.4243    0.1134    2.5143 H   0  0  0  0  0  0  0  0  0  0  0  0
  1  2  2  0  0  0  0
  2  3  1  0  0  0  0
  3 11  1  0  0  0  0
  4 12  1  6  0  0  0
  4  6  1  0  0  0  0
  4  2  1  0  0  0  0
  5  4  1  0  0  0  0
  6  7  1  0  0  0  0
  6  9  1  0  0  0  0
  7 14  1  0  0  0  0
  7 16  1  0  0  0  0
  8 19  1  0  0  0  0
  8  6  1  0  0  0  0
  9 21  1  0  0  0  0
  9 10  1  0  0  0  0
 10 22  1  0  0  0  0
 13  5  1  0  0  0  0
 15  7  1  0  0  0  0
 17  8  1  0  0  0  0
 18  8  1  0  0  0  0
 20  9  1  0  0  0  0
M  END
