astex_1meh_28.xyz
 OpenBabel12161914463D

 43 44  0  0  0  0  0  0  0  0999 V2000
   -3.2993    2.3877    1.1244 C   0  0  0  0  0  0  0  0  0  0  0  0
   -3.0630    2.7729    2.2336 O   0  0  0  0  0  0  0  0  0  0  0  0
   -2.5726    1.4301    0.2657 C   0  0  0  0  0  0  0  0  0  0  0  0
   -3.2579    1.3146   -0.9344 C   0  0  0  0  0  0  0  0  0  0  0  0
   -4.4569    2.2251   -0.8716 C   0  0  0  0  0  0  0  0  0  0  0  0
   -4.3919    2.8183    0.4215 O   0  0  0  0  0  0  0  0  0  0  0  0
   -2.8359    0.4664   -1.9444 C   0  0  0  0  0  0  0  0  0  0  0  0
   -3.5927    0.3345   -3.2406 C   0  0  0  0  0  0  0  0  0  0  0  0
   -1.6800   -0.2840   -1.6766 C   0  0  0  0  0  0  0  0  0  0  0  0
   -0.9229   -0.1610   -0.5013 C   0  0  0  0  0  0  0  0  0  0  0  0
   -1.3933    0.7169    0.4899 C   0  0  0  0  0  0  0  0  0  0  0  0
   -0.7454    0.8748    1.6659 O   0  0  0  0  0  0  0  0  0  0  0  0
    0.3275   -1.0112   -0.2879 C   0  0  0  0  0  0  0  0  0  0  0  0
    1.5536   -0.2094    0.0865 C   0  0  0  0  0  0  0  0  0  0  0  0
    2.4235   -0.4055    1.0820 C   0  0  0  0  0  0  0  0  0  0  0  0
    3.5036    0.6316    1.3353 C   0  0  0  0  0  0  0  0  0  0  0  0
    4.9281    0.0838    1.5550 C   0  0  0  0  0  0  0  0  0  0  0  0
    5.1722   -0.5839    2.9014 C   0  0  0  0  0  0  0  0  0  0  0  0
    5.5323   -1.7217    3.0452 O   0  0  0  0  0  0  0  0  0  0  0  0
    4.9550    0.1912    3.9940 O   0  0  0  0  0  0  0  0  0  0  0  0
    2.3756   -1.5760    2.0282 C   0  0  0  0  0  0  0  0  0  0  0  0
   -1.2625   -1.1832   -2.6337 O   0  0  0  0  0  0  0  0  0  0  0  0
   -1.8817   -2.4522   -2.5079 C   0  0  0  0  0  0  0  0  0  0  0  0
   -4.4322    3.0225   -1.6230 H   0  0  0  0  0  0  0  0  0  0  0  0
   -5.4055    1.6841   -0.9605 H   0  0  0  0  0  0  0  0  0  0  0  0
   -3.9298    1.3119   -3.6034 H   0  0  0  0  0  0  0  0  0  0  0  0
   -2.9578   -0.1242   -4.0020 H   0  0  0  0  0  0  0  0  0  0  0  0
   -4.4933   -0.2845   -3.1251 H   0  0  0  0  0  0  0  0  0  0  0  0
    0.1470    0.5003    1.5722 H   0  0  0  0  0  0  0  0  0  0  0  0
    0.5417   -1.5204   -1.2309 H   0  0  0  0  0  0  0  0  0  0  0  0
    0.1255   -1.7939    0.4585 H   0  0  0  0  0  0  0  0  0  0  0  0
    1.7028    0.6499   -0.5714 H   0  0  0  0  0  0  0  0  0  0  0  0
    3.5380    1.3233    0.4846 H   0  0  0  0  0  0  0  0  0  0  0  0
    3.2107    1.2405    2.2051 H   0  0  0  0  0  0  0  0  0  0  0  0
    5.1759   -0.6467    0.7805 H   0  0  0  0  0  0  0  0  0  0  0  0
    5.6498    0.9068    1.4580 H   0  0  0  0  0  0  0  0  0  0  0  0
    4.7008    1.0852    3.7284 H   0  0  0  0  0  0  0  0  0  0  0  0
    2.5145   -1.2414    3.0631 H   0  0  0  0  0  0  0  0  0  0  0  0
    1.4268   -2.1155    1.9699 H   0  0  0  0  0  0  0  0  0  0  0  0
    3.1783   -2.2905    1.8147 H   0  0  0  0  0  0  0  0  0  0  0  0
   -2.9715   -2.3809   -2.6184 H   0  0  0  0  0  0  0  0  0  0  0  0
   -1.4757   -3.0798   -3.3033 H   0  0  0  0  0  0  0  0  0  0  0  0
   -1.6615   -2.9067   -1.5319 H   0  0  0  0  0  0  0  0  0  0  0  0
  1  2  2  0  0  0  0
  3 11  1  0  0  0  0
  3  1  1  0  0  0  0
  4  5  1  0  0  0  0
  4  3  2  0  0  0  0
  5  6  1  0  0  0  0
  6  1  1  0  0  0  0
  7  9  2  0  0  0  0
  7  4  1  0  0  0  0
  8 28  1  0  0  0  0
  8  7  1  0  0  0  0
  9 10  1  0  0  0  0
 10 13  1  0  0  0  0
 10 11  2  0  0  0  0
 11 12  1  0  0  0  0
 13 14  1  0  0  0  0
 13 31  1  0  0  0  0
 14 15  2  0  0  0  0
 15 16  1  0  0  0  0
 15 21  1  0  0  0  0
 16 17  1  0  0  0  0
 16 34  1  0  0  0  0
 17 18  1  0  0  0  0
 18 19  2  0  0  0  0
 18 20  1  0  0  0  0
 21 38  1  0  0  0  0
 22 23  1  0  0  0  0
 22  9  1  0  0  0  0
 23 43  1  0  0  0  0
 24  5  1  0  0  0  0
 25  5  1  0  0  0  0
 26  8  1  0  0  0  0
 27  8  1  0  0  0  0
 29 12  1  0  0  0  0
 30 13  1  0  0  0  0
 32 14  1  0  0  0  0
 33 16  1  0  0  0  0
 35 17  1  0  0  0  0
 36 17  1  0  0  0  0
 37 20  1  0  0  0  0
 39 21  1  0  0  0  0
 40 21  1  0  0  0  0
 41 23  1  0  0  0  0
 42 23  1  0  0  0  0
M  END
