astex_1of1_11.xyz
 OpenBabel12161914463D

 34 36  0  0  1  0  0  0  0  0999 V2000
    3.7071    2.2047   -0.1126 O   0  0  0  0  0  0  0  0  0  0  0  0
    3.4458    0.9723   -0.7556 C   0  0  0  0  0  0  0  0  0  0  0  0
    2.6489    0.0060    0.1159 C   0  0  2  0  0  0  0  0  0  0  0  0
    2.1679   -1.2366   -0.6692 C   0  0  1  0  0  0  0  0  0  0  0  0
    3.0810   -2.3136   -0.6777 O   0  0  0  0  0  0  0  0  0  0  0  0
    0.8549   -1.6627   -0.0032 C   0  0  0  0  0  0  0  0  0  0  0  0
    0.2531   -0.3702    0.5233 C   0  0  2  0  0  0  0  0  0  0  0  0
   -1.0470    0.0440    0.0579 N   0  0  0  0  0  0  0  0  0  0  0  0
   -1.1403    0.4580   -1.2647 C   0  0  0  0  0  0  0  0  0  0  0  0
   -0.1805    0.5363   -2.0081 O   0  0  0  0  0  0  0  0  0  0  0  0
   -2.4176    0.7772   -1.6640 N   0  0  0  0  0  0  0  0  0  0  0  0
   -3.6027    0.6751   -0.9341 C   0  0  0  0  0  0  0  0  0  0  0  0
   -4.6671    0.9893   -1.4322 O   0  0  0  0  0  0  0  0  0  0  0  0
   -3.4190    0.1671    0.4296 C   0  0  0  0  0  0  0  0  0  0  0  0
   -2.1745   -0.1172    0.8446 C   0  0  0  0  0  0  0  0  0  0  0  0
   -4.6484    0.0109    1.2672 C   0  0  0  0  0  0  0  0  0  0  0  0
    1.3703    0.6390    0.6438 C   0  0  1  0  0  0  0  0  0  0  0  0
    0.7363    0.0471    1.8765 C   0  0  0  0  0  0  0  0  0  0  0  0
    4.2645    2.0334    0.6574 H   0  0  0  0  0  0  0  0  0  0  0  0
    2.8448    1.2270   -1.6387 H   0  0  0  0  0  0  0  0  0  0  0  0
    4.3786    0.5069   -1.1140 H   0  0  0  0  0  0  0  0  0  0  0  0
    3.2849   -0.3336    0.9517 H   0  0  0  0  0  0  0  0  0  0  0  0
    1.9235   -0.9094   -1.6927 H   0  0  0  0  0  0  0  0  0  0  0  0
    3.8396   -2.0519   -1.2158 H   0  0  0  0  0  0  0  0  0  0  0  0
    1.0847   -2.3523    0.8175 H   0  0  0  0  0  0  0  0  0  0  0  0
    0.2012   -2.1881   -0.7036 H   0  0  0  0  0  0  0  0  0  0  0  0
   -2.5007    1.1002   -2.6185 H   0  0  0  0  0  0  0  0  0  0  0  0
   -1.9736   -0.4912    1.8428 H   0  0  0  0  0  0  0  0  0  0  0  0
   -5.3694   -0.6475    0.7730 H   0  0  0  0  0  0  0  0  0  0  0  0
   -5.1516    0.9741    1.3991 H   0  0  0  0  0  0  0  0  0  0  0  0
   -4.4191   -0.4014    2.2558 H   0  0  0  0  0  0  0  0  0  0  0  0
    1.2216    1.7024    0.4681 H   0  0  0  0  0  0  0  0  0  0  0  0
    1.3048   -0.6847    2.4488 H   0  0  0  0  0  0  0  0  0  0  0  0
    0.0983    0.6896    2.4802 H   0  0  0  0  0  0  0  0  0  0  0  0
  1 19  1  0  0  0  0
  2  1  1  0  0  0  0
  2  3  1  0  0  0  0
  3  4  1  6  0  0  0
  3 22  1  0  0  0  0
  4 23  1  6  0  0  0
  4  6  1  0  0  0  0
  5  4  1  0  0  0  0
  6  7  1  0  0  0  0
  6 25  1  0  0  0  0
  7 17  1  6  0  0  0
  7 18  1  0  0  0  0
  8  7  1  0  0  0  0
  8 15  1  0  0  0  0
  9  8  1  0  0  0  0
 10  9  2  0  0  0  0
 11  9  1  0  0  0  0
 11 12  1  0  0  0  0
 12 14  1  0  0  0  0
 13 12  2  0  0  0  0
 14 15  2  0  0  0  0
 14 16  1  0  0  0  0
 15 28  1  0  0  0  0
 16 30  1  0  0  0  0
 16 31  1  0  0  0  0
 17  3  1  6  0  0  0
 17 18  1  0  0  0  0
 18 33  1  0  0  0  0
 18 34  1  0  0  0  0
 20  2  1  0  0  0  0
 21  2  1  0  0  0  0
 24  5  1  0  0  0  0
 26  6  1  0  0  0  0
 27 11  1  0  0  0  0
 29 16  1  0  0  0  0
 32 17  1  0  0  0  0
M  END
