astex_1meh_29.xyz
 OpenBabel12161914463D

 43 44  0  0  0  0  0  0  0  0999 V2000
   -2.7887    2.8526    0.5955 C   0  0  0  0  0  0  0  0  0  0  0  0
   -2.4756    3.5544    1.5152 O   0  0  0  0  0  0  0  0  0  0  0  0
   -2.3825    1.4719    0.2613 C   0  0  0  0  0  0  0  0  0  0  0  0
   -3.0122    1.1100   -0.9198 C   0  0  0  0  0  0  0  0  0  0  0  0
   -3.8730    2.2651   -1.3607 C   0  0  0  0  0  0  0  0  0  0  0  0
   -3.6536    3.2732   -0.3781 O   0  0  0  0  0  0  0  0  0  0  0  0
   -2.8162   -0.1274   -1.5121 C   0  0  0  0  0  0  0  0  0  0  0  0
   -3.5404   -0.5238   -2.7742 C   0  0  0  0  0  0  0  0  0  0  0  0
   -1.9061   -0.9788   -0.8677 C   0  0  0  0  0  0  0  0  0  0  0  0
   -1.2478   -0.6615    0.3307 C   0  0  0  0  0  0  0  0  0  0  0  0
   -1.5181    0.5904    0.9134 C   0  0  0  0  0  0  0  0  0  0  0  0
   -0.9374    0.9703    2.0727 O   0  0  0  0  0  0  0  0  0  0  0  0
   -0.3596   -1.6905    1.0179 C   0  0  0  0  0  0  0  0  0  0  0  0
    1.0159   -1.2653    1.4972 C   0  0  0  0  0  0  0  0  0  0  0  0
    1.7989   -0.2498    1.1170 C   0  0  0  0  0  0  0  0  0  0  0  0
    2.9987    0.1201    1.9691 C   0  0  0  0  0  0  0  0  0  0  0  0
    4.3375   -0.2787    1.3266 C   0  0  0  0  0  0  0  0  0  0  0  0
    5.5943    0.2395    2.0104 C   0  0  0  0  0  0  0  0  0  0  0  0
    6.5970    0.5182    1.4101 O   0  0  0  0  0  0  0  0  0  0  0  0
    5.5610    0.3527    3.3591 O   0  0  0  0  0  0  0  0  0  0  0  0
    1.6045    0.6235   -0.0959 C   0  0  0  0  0  0  0  0  0  0  0  0
   -1.6680   -2.2117   -1.4382 O   0  0  0  0  0  0  0  0  0  0  0  0
   -0.6321   -2.1883   -2.4031 C   0  0  0  0  0  0  0  0  0  0  0  0
   -3.5875    2.6626   -2.3412 H   0  0  0  0  0  0  0  0  0  0  0  0
   -4.9416    2.0220   -1.3782 H   0  0  0  0  0  0  0  0  0  0  0  0
   -3.1633    0.0248   -3.6483 H   0  0  0  0  0  0  0  0  0  0  0  0
   -3.4215   -1.5937   -2.9590 H   0  0  0  0  0  0  0  0  0  0  0  0
   -4.6120   -0.3019   -2.7010 H   0  0  0  0  0  0  0  0  0  0  0  0
   -0.2315    0.3345    2.2735 H   0  0  0  0  0  0  0  0  0  0  0  0
   -0.2416   -2.5582    0.3632 H   0  0  0  0  0  0  0  0  0  0  0  0
   -0.8995   -2.0891    1.8936 H   0  0  0  0  0  0  0  0  0  0  0  0
    1.4075   -1.9250    2.2752 H   0  0  0  0  0  0  0  0  0  0  0  0
    2.8906   -0.3522    2.9585 H   0  0  0  0  0  0  0  0  0  0  0  0
    2.9924    1.2083    2.1281 H   0  0  0  0  0  0  0  0  0  0  0  0
    4.3840    0.0752    0.2946 H   0  0  0  0  0  0  0  0  0  0  0  0
    4.4162   -1.3729    1.2773 H   0  0  0  0  0  0  0  0  0  0  0  0
    4.6984    0.0813    3.6996 H   0  0  0  0  0  0  0  0  0  0  0  0
    2.5353    0.7238   -0.6676 H   0  0  0  0  0  0  0  0  0  0  0  0
    0.8313    0.2435   -0.7681 H   0  0  0  0  0  0  0  0  0  0  0  0
    1.3257    1.6379    0.2188 H   0  0  0  0  0  0  0  0  0  0  0  0
   -0.5871   -3.1859   -2.8457 H   0  0  0  0  0  0  0  0  0  0  0  0
    0.3354   -1.9547   -1.9359 H   0  0  0  0  0  0  0  0  0  0  0  0
   -0.8283   -1.4467   -3.1890 H   0  0  0  0  0  0  0  0  0  0  0  0
  1  2  2  0  0  0  0
  3  1  1  0  0  0  0
  3 11  2  0  0  0  0
  4  3  1  0  0  0  0
  5  4  1  0  0  0  0
  5  6  1  0  0  0  0
  6  1  1  0  0  0  0
  7  4  2  0  0  0  0
  7  9  1  0  0  0  0
  8 28  1  0  0  0  0
  8  7  1  0  0  0  0
  9 10  2  0  0  0  0
 10 11  1  0  0  0  0
 10 13  1  0  0  0  0
 11 12  1  0  0  0  0
 12 29  1  0  0  0  0
 13 14  1  0  0  0  0
 13 31  1  0  0  0  0
 14 32  1  0  0  0  0
 15 14  2  0  0  0  0
 15 16  1  0  0  0  0
 16 34  1  0  0  0  0
 16 33  1  0  0  0  0
 17 16  1  0  0  0  0
 17 18  1  0  0  0  0
 18 20  1  0  0  0  0
 19 18  2  0  0  0  0
 20 37  1  0  0  0  0
 21 40  1  0  0  0  0
 21 15  1  0  0  0  0
 22  9  1  0  0  0  0
 23 42  1  0  0  0  0
 23 22  1  0  0  0  0
 24  5  1  0  0  0  0
 25  5  1  0  0  0  0
 26  8  1  0  0  0  0
 27  8  1  0  0  0  0
 30 13  1  0  0  0  0
 35 17  1  0  0  0  0
 36 17  1  0  0  0  0
 38 21  1  0  0  0  0
 39 21  1  0  0  0  0
 41 23  1  0  0  0  0
 43 23  1  0  0  0  0
M  END
