astex_1n2j_11.xyz
 OpenBabel12161914463D

 22 21  0  0  1  0  0  0  0  0999 V2000
    2.3373    0.8855   -1.4709 O   0  0  0  0  0  0  0  0  0  0  0  0
    1.9481   -0.0803   -0.8649 C   0  0  0  0  0  0  0  0  0  0  0  0
    2.1322   -1.3423   -1.3193 O   0  0  0  0  0  0  0  0  0  0  0  0
    1.1671   -0.0385    0.4374 C   0  0  2  0  0  0  0  0  0  0  0  0
    1.4452   -1.1491    1.2519 O   0  0  0  0  0  0  0  0  0  0  0  0
   -0.3529    0.1404    0.1600 C   0  0  0  0  0  0  0  0  0  0  0  0
   -0.9246   -1.0167   -0.6683 C   0  0  0  0  0  0  0  0  0  0  0  0
   -0.5915    1.4683   -0.5629 C   0  0  0  0  0  0  0  0  0  0  0  0
   -1.0487    0.1631    1.5338 C   0  0  0  0  0  0  0  0  0  0  0  0
   -2.4461    0.3724    1.4494 O   0  0  0  0  0  0  0  0  0  0  0  0
    2.6106   -1.2573   -2.1614 H   0  0  0  0  0  0  0  0  0  0  0  0
    1.5048    0.8548    0.9761 H   0  0  0  0  0  0  0  0  0  0  0  0
    1.5040   -1.9264    0.6780 H   0  0  0  0  0  0  0  0  0  0  0  0
   -0.6955   -1.9889   -0.2142 H   0  0  0  0  0  0  0  0  0  0  0  0
   -0.5327   -1.0157   -1.6897 H   0  0  0  0  0  0  0  0  0  0  0  0
   -2.0132   -0.9196   -0.7155 H   0  0  0  0  0  0  0  0  0  0  0  0
   -1.6626    1.6302   -0.7299 H   0  0  0  0  0  0  0  0  0  0  0  0
   -0.2054    2.3097    0.0253 H   0  0  0  0  0  0  0  0  0  0  0  0
   -0.0980    1.4834   -1.5383 H   0  0  0  0  0  0  0  0  0  0  0  0
   -0.5787    0.9305    2.1719 H   0  0  0  0  0  0  0  0  0  0  0  0
   -0.9102   -0.8037    2.0251 H   0  0  0  0  0  0  0  0  0  0  0  0
   -2.5893    1.3003    1.2265 H   0  0  0  0  0  0  0  0  0  0  0  0
  1  2  2  0  0  0  0
  2  4  1  0  0  0  0
  3  2  1  0  0  0  0
  4 12  1  1  0  0  0
  4  5  1  0  0  0  0
  6  4  1  0  0  0  0
  6  9  1  0  0  0  0
  7 14  1  0  0  0  0
  7  6  1  0  0  0  0
  8 18  1  0  0  0  0
  8  6  1  0  0  0  0
  9 21  1  0  0  0  0
  9 20  1  0  0  0  0
 10  9  1  0  0  0  0
 11  3  1  0  0  0  0
 13  5  1  0  0  0  0
 15  7  1  0  0  0  0
 16  7  1  0  0  0  0
 17  8  1  0  0  0  0
 19  8  1  0  0  0  0
 22 10  1  0  0  0  0
M  END
