astex_1meh_06.xyz
 OpenBabel12161914463D

 43 44  0  0  0  0  0  0  0  0999 V2000
   -3.4474    3.0185    0.7615 C   0  0  0  0  0  0  0  0  0  0  0  0
   -3.2524    4.1486    1.1461 O   0  0  0  0  0  0  0  0  0  0  0  0
   -2.4751    2.0946    0.1803 C   0  0  0  0  0  0  0  0  0  0  0  0
   -3.1188    0.9084   -0.1234 C   0  0  0  0  0  0  0  0  0  0  0  0
   -4.5650    1.0712    0.2789 C   0  0  0  0  0  0  0  0  0  0  0  0
   -4.6517    2.4019    0.8058 O   0  0  0  0  0  0  0  0  0  0  0  0
   -2.4335   -0.1521   -0.6943 C   0  0  0  0  0  0  0  0  0  0  0  0
   -3.1078   -1.4591   -1.0227 C   0  0  0  0  0  0  0  0  0  0  0  0
   -1.0693    0.0708   -0.9565 C   0  0  0  0  0  0  0  0  0  0  0  0
   -0.3865    1.2569   -0.6427 C   0  0  0  0  0  0  0  0  0  0  0  0
   -1.1164    2.2925   -0.0511 C   0  0  0  0  0  0  0  0  0  0  0  0
   -0.5057    3.4490    0.2791 O   0  0  0  0  0  0  0  0  0  0  0  0
    1.1078    1.3877   -0.8631 C   0  0  0  0  0  0  0  0  0  0  0  0
    1.8955    1.0240    0.3708 C   0  0  0  0  0  0  0  0  0  0  0  0
    2.7044   -0.0317    0.5343 C   0  0  0  0  0  0  0  0  0  0  0  0
    3.4413   -0.2141    1.8403 C   0  0  0  0  0  0  0  0  0  0  0  0
    2.7760   -1.1945    2.8237 C   0  0  0  0  0  0  0  0  0  0  0  0
    2.7591   -2.6309    2.3592 C   0  0  0  0  0  0  0  0  0  0  0  0
    1.7989   -3.3599    2.3370 O   0  0  0  0  0  0  0  0  0  0  0  0
    3.9869   -3.0521    1.9666 O   0  0  0  0  0  0  0  0  0  0  0  0
    2.8709   -1.0768   -0.5424 C   0  0  0  0  0  0  0  0  0  0  0  0
   -0.3366   -0.9489   -1.5322 O   0  0  0  0  0  0  0  0  0  0  0  0
   -0.4457   -0.9847   -2.9446 C   0  0  0  0  0  0  0  0  0  0  0  0
   -5.2577    0.9910   -0.5653 H   0  0  0  0  0  0  0  0  0  0  0  0
   -4.8781    0.3726    1.0614 H   0  0  0  0  0  0  0  0  0  0  0  0
   -2.3641   -2.2569   -1.0914 H   0  0  0  0  0  0  0  0  0  0  0  0
   -3.8425   -1.7267   -0.2557 H   0  0  0  0  0  0  0  0  0  0  0  0
   -3.6507   -1.4143   -1.9770 H   0  0  0  0  0  0  0  0  0  0  0  0
   -1.1849    4.0398    0.6576 H   0  0  0  0  0  0  0  0  0  0  0  0
    1.4064    0.7644   -1.7115 H   0  0  0  0  0  0  0  0  0  0  0  0
    1.3333    2.4273   -1.1226 H   0  0  0  0  0  0  0  0  0  0  0  0
    1.7462    1.7028    1.2110 H   0  0  0  0  0  0  0  0  0  0  0  0
    3.5313    0.7552    2.3448 H   0  0  0  0  0  0  0  0  0  0  0  0
    4.4574   -0.5682    1.6414 H   0  0  0  0  0  0  0  0  0  0  0  0
    1.7421   -0.9127    3.0385 H   0  0  0  0  0  0  0  0  0  0  0  0
    3.3234   -1.1711    3.7755 H   0  0  0  0  0  0  0  0  0  0  0  0
    3.8750   -3.9823    1.7071 H   0  0  0  0  0  0  0  0  0  0  0  0
    1.9056   -1.5498   -0.7669 H   0  0  0  0  0  0  0  0  0  0  0  0
    3.5825   -1.8480   -0.2363 H   0  0  0  0  0  0  0  0  0  0  0  0
    3.2363   -0.6328   -1.4768 H   0  0  0  0  0  0  0  0  0  0  0  0
   -0.1456   -0.0252   -3.3875 H   0  0  0  0  0  0  0  0  0  0  0  0
   -1.4697   -1.2115   -3.2670 H   0  0  0  0  0  0  0  0  0  0  0  0
    0.2248   -1.7731   -3.2943 H   0  0  0  0  0  0  0  0  0  0  0  0
  1  6  1  0  0  0  0
  1  2  2  0  0  0  0
  3  1  1  0  0  0  0
  4  3  2  0  0  0  0
  4  5  1  0  0  0  0
  5  6  1  0  0  0  0
  5 25  1  0  0  0  0
  7  4  1  0  0  0  0
  8  7  1  0  0  0  0
  8 27  1  0  0  0  0
  9  7  2  0  0  0  0
  9 10  1  0  0  0  0
 10 11  2  0  0  0  0
 11  3  1  0  0  0  0
 11 12  1  0  0  0  0
 12 29  1  0  0  0  0
 13 10  1  0  0  0  0
 13 14  1  0  0  0  0
 14 15  2  0  0  0  0
 14 32  1  0  0  0  0
 15 16  1  0  0  0  0
 16 33  1  0  0  0  0
 16 17  1  0  0  0  0
 17 35  1  0  0  0  0
 17 36  1  0  0  0  0
 18 17  1  0  0  0  0
 19 18  2  0  0  0  0
 20 18  1  0  0  0  0
 21 39  1  0  0  0  0
 21 15  1  0  0  0  0
 22  9  1  0  0  0  0
 23 22  1  0  0  0  0
 24  5  1  0  0  0  0
 26  8  1  0  0  0  0
 28  8  1  0  0  0  0
 30 13  1  0  0  0  0
 31 13  1  0  0  0  0
 34 16  1  0  0  0  0
 37 20  1  0  0  0  0
 38 21  1  0  0  0  0
 40 21  1  0  0  0  0
 41 23  1  0  0  0  0
 42 23  1  0  0  0  0
 43 23  1  0  0  0  0
M  END
