astex_1meh_19.xyz
 OpenBabel12161914463D

 43 44  0  0  0  0  0  0  0  0999 V2000
   -4.2483    2.0925    1.1725 C   0  0  0  0  0  0  0  0  0  0  0  0
   -4.6846    2.2818    2.2717 O   0  0  0  0  0  0  0  0  0  0  0  0
   -3.1619    1.2041    0.7128 C   0  0  0  0  0  0  0  0  0  0  0  0
   -3.0492    1.3282   -0.6644 C   0  0  0  0  0  0  0  0  0  0  0  0
   -4.0665    2.3436   -1.1189 C   0  0  0  0  0  0  0  0  0  0  0  0
   -4.7493    2.7289    0.0699 O   0  0  0  0  0  0  0  0  0  0  0  0
   -2.1265    0.5998   -1.3976 C   0  0  0  0  0  0  0  0  0  0  0  0
   -1.9638    0.7866   -2.8848 C   0  0  0  0  0  0  0  0  0  0  0  0
   -1.3583   -0.3218   -0.6686 C   0  0  0  0  0  0  0  0  0  0  0  0
   -1.4153   -0.4533    0.7264 C   0  0  0  0  0  0  0  0  0  0  0  0
   -2.3118    0.3625    1.4316 C   0  0  0  0  0  0  0  0  0  0  0  0
   -2.3866    0.3548    2.7838 O   0  0  0  0  0  0  0  0  0  0  0  0
   -0.4641   -1.4063    1.4308 C   0  0  0  0  0  0  0  0  0  0  0  0
    0.8589   -0.7526    1.7540 C   0  0  0  0  0  0  0  0  0  0  0  0
    2.0597   -1.0546    1.2505 C   0  0  0  0  0  0  0  0  0  0  0  0
    3.2932   -0.3012    1.6741 C   0  0  0  0  0  0  0  0  0  0  0  0
    3.9596    0.4489    0.5191 C   0  0  0  0  0  0  0  0  0  0  0  0
    5.2523    1.1004    0.9441 C   0  0  0  0  0  0  0  0  0  0  0  0
    5.7794    0.9791    2.0243 O   0  0  0  0  0  0  0  0  0  0  0  0
    5.7855    1.8534   -0.0391 O   0  0  0  0  0  0  0  0  0  0  0  0
    2.2639   -2.0992    0.1807 C   0  0  0  0  0  0  0  0  0  0  0  0
   -0.4608   -1.1215   -1.3496 O   0  0  0  0  0  0  0  0  0  0  0  0
   -1.0570   -2.2743   -1.9163 C   0  0  0  0  0  0  0  0  0  0  0  0
   -4.7965    1.9310   -1.8239 H   0  0  0  0  0  0  0  0  0  0  0  0
   -3.6126    3.2363   -1.5636 H   0  0  0  0  0  0  0  0  0  0  0  0
   -2.7724    0.3044   -3.4509 H   0  0  0  0  0  0  0  0  0  0  0  0
   -1.9816    1.8492   -3.1537 H   0  0  0  0  0  0  0  0  0  0  0  0
   -1.0128    0.3603   -3.2131 H   0  0  0  0  0  0  0  0  0  0  0  0
   -1.6457   -0.1525    3.1388 H   0  0  0  0  0  0  0  0  0  0  0  0
   -0.9229   -1.7881    2.3540 H   0  0  0  0  0  0  0  0  0  0  0  0
   -0.3080   -2.2830    0.8000 H   0  0  0  0  0  0  0  0  0  0  0  0
    0.7771    0.1005    2.4320 H   0  0  0  0  0  0  0  0  0  0  0  0
    4.0290   -0.9999    2.0894 H   0  0  0  0  0  0  0  0  0  0  0  0
    3.0554    0.4042    2.4792 H   0  0  0  0  0  0  0  0  0  0  0  0
    3.2989    1.2217    0.1100 H   0  0  0  0  0  0  0  0  0  0  0  0
    4.1842   -0.2295   -0.3139 H   0  0  0  0  0  0  0  0  0  0  0  0
    6.6076    2.2222    0.3246 H   0  0  0  0  0  0  0  0  0  0  0  0
    1.6198   -2.9726    0.3227 H   0  0  0  0  0  0  0  0  0  0  0  0
    3.3016   -2.4503    0.1717 H   0  0  0  0  0  0  0  0  0  0  0  0
    2.0331   -1.6864   -0.8091 H   0  0  0  0  0  0  0  0  0  0  0  0
   -1.4963   -2.9163   -1.1400 H   0  0  0  0  0  0  0  0  0  0  0  0
   -1.8442   -2.0126   -2.6346 H   0  0  0  0  0  0  0  0  0  0  0  0
   -0.2621   -2.8188   -2.4310 H   0  0  0  0  0  0  0  0  0  0  0  0
  1  2  2  0  0  0  0
  3  1  1  0  0  0  0
  3 11  1  0  0  0  0
  4  3  2  0  0  0  0
  5  4  1  0  0  0  0
  5  6  1  0  0  0  0
  6  1  1  0  0  0  0
  7  9  2  0  0  0  0
  7  4  1  0  0  0  0
  8  7  1  0  0  0  0
  9 10  1  0  0  0  0
 10 13  1  0  0  0  0
 10 11  2  0  0  0  0
 11 12  1  0  0  0  0
 12 29  1  0  0  0  0
 13 14  1  0  0  0  0
 13 30  1  0  0  0  0
 14 32  1  0  0  0  0
 15 16  1  0  0  0  0
 15 14  2  0  0  0  0
 16 33  1  0  0  0  0
 16 34  1  0  0  0  0
 17 18  1  0  0  0  0
 17 16  1  0  0  0  0
 18 19  2  0  0  0  0
 20 37  1  0  0  0  0
 20 18  1  0  0  0  0
 21 38  1  0  0  0  0
 21 15  1  0  0  0  0
 22  9  1  0  0  0  0
 23 22  1  0  0  0  0
 23 41  1  0  0  0  0
 24  5  1  0  0  0  0
 25  5  1  0  0  0  0
 26  8  1  0  0  0  0
 27  8  1  0  0  0  0
 28  8  1  0  0  0  0
 31 13  1  0  0  0  0
 35 17  1  0  0  0  0
 36 17  1  0  0  0  0
 39 21  1  0  0  0  0
 40 21  1  0  0  0  0
 42 23  1  0  0  0  0
 43 23  1  0  0  0  0
M  END
