astex_1meh_25.xyz
 OpenBabel12161914463D

 43 44  0  0  0  0  0  0  0  0999 V2000
   -3.8101    2.7626    0.8988 C   0  0  0  0  0  0  0  0  0  0  0  0
   -3.6705    3.5681    1.7740 O   0  0  0  0  0  0  0  0  0  0  0  0
   -2.8122    1.9356    0.1874 C   0  0  0  0  0  0  0  0  0  0  0  0
   -3.4810    1.1581   -0.7492 C   0  0  0  0  0  0  0  0  0  0  0  0
   -4.9497    1.4783   -0.6515 C   0  0  0  0  0  0  0  0  0  0  0  0
   -5.0380    2.4614    0.3752 O   0  0  0  0  0  0  0  0  0  0  0  0
   -2.8235    0.2581   -1.5730 C   0  0  0  0  0  0  0  0  0  0  0  0
   -3.5512   -0.6081   -2.5674 C   0  0  0  0  0  0  0  0  0  0  0  0
   -1.4322    0.1911   -1.4170 C   0  0  0  0  0  0  0  0  0  0  0  0
   -0.7127    0.9995   -0.5277 C   0  0  0  0  0  0  0  0  0  0  0  0
   -1.4269    1.8442    0.3334 C   0  0  0  0  0  0  0  0  0  0  0  0
   -0.8029    2.5754    1.2887 O   0  0  0  0  0  0  0  0  0  0  0  0
    0.8031    0.9197   -0.4882 C   0  0  0  0  0  0  0  0  0  0  0  0
    1.3084    0.0171    0.6090 C   0  0  0  0  0  0  0  0  0  0  0  0
    2.3002   -0.8777    0.5337 C   0  0  0  0  0  0  0  0  0  0  0  0
    2.6896   -1.7067    1.7364 C   0  0  0  0  0  0  0  0  0  0  0  0
    4.0400   -1.3007    2.3363 C   0  0  0  0  0  0  0  0  0  0  0  0
    3.9702    0.0217    3.0856 C   0  0  0  0  0  0  0  0  0  0  0  0
    2.9465    0.5686    3.4005 O   0  0  0  0  0  0  0  0  0  0  0  0
    5.1602    0.5677    3.4297 O   0  0  0  0  0  0  0  0  0  0  0  0
    3.1473   -1.0804   -0.6987 C   0  0  0  0  0  0  0  0  0  0  0  0
   -0.7282   -0.7046   -2.1916 O   0  0  0  0  0  0  0  0  0  0  0  0
   -0.5786   -1.9703   -1.5710 C   0  0  0  0  0  0  0  0  0  0  0  0
   -5.3605    1.8981   -1.5764 H   0  0  0  0  0  0  0  0  0  0  0  0
   -5.5529    0.6108   -0.3607 H   0  0  0  0  0  0  0  0  0  0  0  0
   -4.0945   -1.4234   -2.0711 H   0  0  0  0  0  0  0  0  0  0  0  0
   -4.2914   -0.0305   -3.1327 H   0  0  0  0  0  0  0  0  0  0  0  0
   -2.8397   -1.0490   -3.2694 H   0  0  0  0  0  0  0  0  0  0  0  0
    0.1172    2.2836    1.3552 H   0  0  0  0  0  0  0  0  0  0  0  0
    1.1576    0.5781   -1.4633 H   0  0  0  0  0  0  0  0  0  0  0  0
    1.2278    1.9274   -0.3531 H   0  0  0  0  0  0  0  0  0  0  0  0
    0.8033    0.1472    1.5691 H   0  0  0  0  0  0  0  0  0  0  0  0
    1.9280   -1.6305    2.5185 H   0  0  0  0  0  0  0  0  0  0  0  0
    2.7454   -2.7598    1.4334 H   0  0  0  0  0  0  0  0  0  0  0  0
    4.3797   -2.0665    3.0476 H   0  0  0  0  0  0  0  0  0  0  0  0
    4.8060   -1.2402    1.5511 H   0  0  0  0  0  0  0  0  0  0  0  0
    5.8885    0.0118    3.1202 H   0  0  0  0  0  0  0  0  0  0  0  0
    2.5796   -0.9145   -1.6214 H   0  0  0  0  0  0  0  0  0  0  0  0
    3.5409   -2.1030   -0.7252 H   0  0  0  0  0  0  0  0  0  0  0  0
    4.0119   -0.4022   -0.7147 H   0  0  0  0  0  0  0  0  0  0  0  0
   -1.5538   -2.4364   -1.3708 H   0  0  0  0  0  0  0  0  0  0  0  0
   -0.0158   -2.5977   -2.2661 H   0  0  0  0  0  0  0  0  0  0  0  0
   -0.0250   -1.8820   -0.6282 H   0  0  0  0  0  0  0  0  0  0  0  0
  1  2  2  0  0  0  0
  3 11  1  0  0  0  0
  3  1  1  0  0  0  0
  4  5  1  0  0  0  0
  4  3  2  0  0  0  0
  5 25  1  0  0  0  0
  5  6  1  0  0  0  0
  6  1  1  0  0  0  0
  7  9  2  0  0  0  0
  7  4  1  0  0  0  0
  8 26  1  0  0  0  0
  8  7  1  0  0  0  0
  9 10  1  0  0  0  0
 10 13  1  0  0  0  0
 10 11  2  0  0  0  0
 11 12  1  0  0  0  0
 12 29  1  0  0  0  0
 13 31  1  0  0  0  0
 13 14  1  0  0  0  0
 14 32  1  0  0  0  0
 15 14  2  0  0  0  0
 15 16  1  0  0  0  0
 16 17  1  0  0  0  0
 16 33  1  0  0  0  0
 17 35  1  0  0  0  0
 17 18  1  0  0  0  0
 18 19  2  0  0  0  0
 18 20  1  0  0  0  0
 21 15  1  0  0  0  0
 22 23  1  0  0  0  0
 22  9  1  0  0  0  0
 23 41  1  0  0  0  0
 23 43  1  0  0  0  0
 24  5  1  0  0  0  0
 27  8  1  0  0  0  0
 28  8  1  0  0  0  0
 30 13  1  0  0  0  0
 34 16  1  0  0  0  0
 36 17  1  0  0  0  0
 37 20  1  0  0  0  0
 38 21  1  0  0  0  0
 39 21  1  0  0  0  0
 40 21  1  0  0  0  0
 42 23  1  0  0  0  0
M  END
