astex_1n2j_09.xyz
 OpenBabel12161914463D

 22 21  0  0  1  0  0  0  0  0999 V2000
    1.9559   -0.4678   -2.1640 O   0  0  0  0  0  0  0  0  0  0  0  0
    1.8582   -0.4532   -0.9614 C   0  0  0  0  0  0  0  0  0  0  0  0
    2.8711   -0.0357   -0.1912 O   0  0  0  0  0  0  0  0  0  0  0  0
    0.5759   -0.9276   -0.2613 C   0  0  2  0  0  0  0  0  0  0  0  0
   -0.1200   -1.7381   -1.1880 O   0  0  0  0  0  0  0  0  0  0  0  0
   -0.3176    0.2357    0.2612 C   0  0  0  0  0  0  0  0  0  0  0  0
    0.4092    1.0273    1.3499 C   0  0  0  0  0  0  0  0  0  0  0  0
   -0.7472    1.1679   -0.8770 C   0  0  0  0  0  0  0  0  0  0  0  0
   -1.5782   -0.3872    0.8913 C   0  0  0  0  0  0  0  0  0  0  0  0
   -2.4598   -0.9551   -0.0424 O   0  0  0  0  0  0  0  0  0  0  0  0
    2.6336   -0.1087    0.7437 H   0  0  0  0  0  0  0  0  0  0  0  0
    0.8545   -1.5585    0.5968 H   0  0  0  0  0  0  0  0  0  0  0  0
    0.2439   -1.4920   -2.0569 H   0  0  0  0  0  0  0  0  0  0  0  0
    1.2541    1.6032    0.9573 H   0  0  0  0  0  0  0  0  0  0  0  0
   -0.2806    1.7458    1.8062 H   0  0  0  0  0  0  0  0  0  0  0  0
    0.7724    0.3704    2.1508 H   0  0  0  0  0  0  0  0  0  0  0  0
   -1.4073    1.9529   -0.4886 H   0  0  0  0  0  0  0  0  0  0  0  0
    0.1101    1.6574   -1.3536 H   0  0  0  0  0  0  0  0  0  0  0  0
   -1.3028    0.6154   -1.6412 H   0  0  0  0  0  0  0  0  0  0  0  0
   -1.2737   -1.1220    1.6601 H   0  0  0  0  0  0  0  0  0  0  0  0
   -2.1368    0.4041    1.4078 H   0  0  0  0  0  0  0  0  0  0  0  0
   -1.9149   -1.5342   -0.5999 H   0  0  0  0  0  0  0  0  0  0  0  0
  1  2  2  0  0  0  0
  2  4  1  0  0  0  0
  2  3  1  0  0  0  0
  3 11  1  0  0  0  0
  4  6  1  0  0  0  0
  4 12  1  1  0  0  0
  5  4  1  0  0  0  0
  6  9  1  0  0  0  0
  6  7  1  0  0  0  0
  7 15  1  0  0  0  0
  7 16  1  0  0  0  0
  8 17  1  0  0  0  0
  8  6  1  0  0  0  0
  9 21  1  0  0  0  0
  9 20  1  0  0  0  0
 10  9  1  0  0  0  0
 13  5  1  0  0  0  0
 14  7  1  0  0  0  0
 18  8  1  0  0  0  0
 19  8  1  0  0  0  0
 22 10  1  0  0  0  0
M  END
