astex_1meh_05.xyz
 OpenBabel12161914463D

 43 44  0  0  0  0  0  0  0  0999 V2000
   -3.6929    2.3343    1.1046 C   0  0  0  0  0  0  0  0  0  0  0  0
   -3.8659    2.6275    2.2651 O   0  0  0  0  0  0  0  0  0  0  0  0
   -2.8071    1.3019    0.5701 C   0  0  0  0  0  0  0  0  0  0  0  0
   -2.9077    1.3050   -0.8092 C   0  0  0  0  0  0  0  0  0  0  0  0
   -3.8955    2.3839   -1.1818 C   0  0  0  0  0  0  0  0  0  0  0  0
   -4.3193    2.9414    0.0695 O   0  0  0  0  0  0  0  0  0  0  0  0
   -2.1712    0.4209   -1.5818 C   0  0  0  0  0  0  0  0  0  0  0  0
   -2.2424    0.4330   -3.0876 C   0  0  0  0  0  0  0  0  0  0  0  0
   -1.3573   -0.4826   -0.8724 C   0  0  0  0  0  0  0  0  0  0  0  0
   -1.2103   -0.4853    0.5245 C   0  0  0  0  0  0  0  0  0  0  0  0
   -1.9576    0.4405    1.2592 C   0  0  0  0  0  0  0  0  0  0  0  0
   -1.8443    0.4860    2.6024 O   0  0  0  0  0  0  0  0  0  0  0  0
   -0.2135   -1.3988    1.2084 C   0  0  0  0  0  0  0  0  0  0  0  0
    1.1560   -0.7705    1.2722 C   0  0  0  0  0  0  0  0  0  0  0  0
    2.2617   -1.1322    0.6088 C   0  0  0  0  0  0  0  0  0  0  0  0
    3.5935   -0.4615    0.8302 C   0  0  0  0  0  0  0  0  0  0  0  0
    3.6079    0.6904    1.8313 C   0  0  0  0  0  0  0  0  0  0  0  0
    4.9829    1.3009    1.9527 C   0  0  0  0  0  0  0  0  0  0  0  0
    5.9702    0.9432    1.3559 O   0  0  0  0  0  0  0  0  0  0  0  0
    5.0009    2.3283    2.8267 O   0  0  0  0  0  0  0  0  0  0  0  0
    2.2827   -2.1963   -0.4589 C   0  0  0  0  0  0  0  0  0  0  0  0
   -0.6256   -1.4119   -1.5893 O   0  0  0  0  0  0  0  0  0  0  0  0
   -1.3720   -2.5725   -1.9132 C   0  0  0  0  0  0  0  0  0  0  0  0
   -4.7779    1.9976   -1.7014 H   0  0  0  0  0  0  0  0  0  0  0  0
   -3.4536    3.1863   -1.7811 H   0  0  0  0  0  0  0  0  0  0  0  0
   -3.1911    0.0171   -3.4539 H   0  0  0  0  0  0  0  0  0  0  0  0
   -2.1768    1.4555   -3.4788 H   0  0  0  0  0  0  0  0  0  0  0  0
   -1.4214   -0.1532   -3.5080 H   0  0  0  0  0  0  0  0  0  0  0  0
   -2.4528    1.1776    2.9256 H   0  0  0  0  0  0  0  0  0  0  0  0
   -0.5576   -1.5869    2.2303 H   0  0  0  0  0  0  0  0  0  0  0  0
   -0.1785   -2.3606    0.6908 H   0  0  0  0  0  0  0  0  0  0  0  0
    1.1907    0.1103    1.9119 H   0  0  0  0  0  0  0  0  0  0  0  0
    3.9802   -0.0997   -0.1304 H   0  0  0  0  0  0  0  0  0  0  0  0
    4.3239   -1.2171    1.1476 H   0  0  0  0  0  0  0  0  0  0  0  0
    3.2999    0.3617    2.8319 H   0  0  0  0  0  0  0  0  0  0  0  0
    2.9174    1.4914    1.5376 H   0  0  0  0  0  0  0  0  0  0  0  0
    5.9159    2.6549    2.8352 H   0  0  0  0  0  0  0  0  0  0  0  0
    2.1045   -1.7504   -1.4449 H   0  0  0  0  0  0  0  0  0  0  0  0
    1.5172   -2.9616   -0.3041 H   0  0  0  0  0  0  0  0  0  0  0  0
    3.2580   -2.6965   -0.4913 H   0  0  0  0  0  0  0  0  0  0  0  0
   -2.2467   -2.3324   -2.5313 H   0  0  0  0  0  0  0  0  0  0  0  0
   -0.7053   -3.2333   -2.4716 H   0  0  0  0  0  0  0  0  0  0  0  0
   -1.7194   -3.0862   -1.0064 H   0  0  0  0  0  0  0  0  0  0  0  0
  1  2  2  0  0  0  0
  3  1  1  0  0  0  0
  3 11  1  0  0  0  0
  4  3  2  0  0  0  0
  5  4  1  0  0  0  0
  5  6  1  0  0  0  0
  6  1  1  0  0  0  0
  7  9  2  0  0  0  0
  7  4  1  0  0  0  0
  8  7  1  0  0  0  0
  9 10  1  0  0  0  0
 10 13  1  0  0  0  0
 10 11  2  0  0  0  0
 11 12  1  0  0  0  0
 12 29  1  0  0  0  0
 13 14  1  0  0  0  0
 13 30  1  0  0  0  0
 14 32  1  0  0  0  0
 15 16  1  0  0  0  0
 15 14  2  0  0  0  0
 16 34  1  0  0  0  0
 16 17  1  0  0  0  0
 17 18  1  0  0  0  0
 17 35  1  0  0  0  0
 18 20  1  0  0  0  0
 19 18  2  0  0  0  0
 20 37  1  0  0  0  0
 21 39  1  0  0  0  0
 21 15  1  0  0  0  0
 22  9  1  0  0  0  0
 23 22  1  0  0  0  0
 23 43  1  0  0  0  0
 24  5  1  0  0  0  0
 25  5  1  0  0  0  0
 26  8  1  0  0  0  0
 27  8  1  0  0  0  0
 28  8  1  0  0  0  0
 31 13  1  0  0  0  0
 33 16  1  0  0  0  0
 36 17  1  0  0  0  0
 38 21  1  0  0  0  0
 40 21  1  0  0  0  0
 41 23  1  0  0  0  0
 42 23  1  0  0  0  0
M  END
