omegapdb_1qxw_17.xyz
 OpenBabel12161914463D

 36 36  0  0  1  0  0  0  0  0999 V2000
    4.2406    0.6319    0.9138 C   0  0  0  0  0  0  0  0  0  0  0  0
    4.8557    0.6186   -0.4607 C   0  0  0  0  0  0  0  0  0  0  0  0
    3.4370    1.0638   -0.2848 C   0  0  0  0  0  0  0  0  0  0  0  0
    2.3626    0.2704   -0.8055 N   0  0  0  0  0  0  0  0  0  0  0  0
    1.2358    0.1034    0.1022 C   0  0  0  0  0  0  0  0  0  0  0  0
    0.2187   -0.7831   -0.6415 C   0  0  0  0  0  0  0  0  0  0  0  0
   -1.0143   -1.1513    0.2044 C   0  0  1  0  0  0  0  0  0  0  0  0
   -0.6006   -2.2267    1.1193 N   0  0  0  0  0  0  0  0  0  0  0  0
   -1.7151    0.0057    0.9345 C   0  0  0  0  0  0  0  0  0  0  0  0
   -2.2576    1.1650    0.0881 C   0  0  0  0  0  0  0  0  0  0  0  0
   -3.3136    0.7845   -0.9545 C   0  0  0  0  0  0  0  0  0  0  0  0
   -4.6094    0.2427   -0.3544 C   0  0  0  0  0  0  0  0  0  0  0  0
   -0.2076   -0.0737   -1.7731 O   0  0  0  0  0  0  0  0  0  0  0  0
    0.8541   -1.9762   -1.0578 O   0  0  0  0  0  0  0  0  0  0  0  0
    4.0041   -0.3275    1.3695 H   0  0  0  0  0  0  0  0  0  0  0  0
    4.5590    1.3974    1.6144 H   0  0  0  0  0  0  0  0  0  0  0  0
    5.6074    1.3646   -0.7029 H   0  0  0  0  0  0  0  0  0  0  0  0
    5.0262   -0.3486   -0.9272 H   0  0  0  0  0  0  0  0  0  0  0  0
    3.2581    2.1346   -0.3777 H   0  0  0  0  0  0  0  0  0  0  0  0
    2.6854   -0.6560   -1.0741 H   0  0  0  0  0  0  0  0  0  0  0  0
    0.7834    1.0797    0.3071 H   0  0  0  0  0  0  0  0  0  0  0  0
    1.5303   -0.3489    1.0648 H   0  0  0  0  0  0  0  0  0  0  0  0
   -1.6917   -1.5953   -0.5312 H   0  0  0  0  0  0  0  0  0  0  0  0
   -1.3973   -2.7979    1.3841 H   0  0  0  0  0  0  0  0  0  0  0  0
   -0.2251   -1.8398    1.9825 H   0  0  0  0  0  0  0  0  0  0  0  0
   -1.0292    0.4060    1.6956 H   0  0  0  0  0  0  0  0  0  0  0  0
   -2.5446   -0.4366    1.5060 H   0  0  0  0  0  0  0  0  0  0  0  0
   -1.4290    1.6765   -0.4119 H   0  0  0  0  0  0  0  0  0  0  0  0
   -2.7007    1.9021    0.7729 H   0  0  0  0  0  0  0  0  0  0  0  0
   -2.8950    0.0603   -1.6629 H   0  0  0  0  0  0  0  0  0  0  0  0
   -3.5467    1.6796   -1.5458 H   0  0  0  0  0  0  0  0  0  0  0  0
   -5.0552    0.9712    0.3333 H   0  0  0  0  0  0  0  0  0  0  0  0
   -5.3441    0.0263   -1.1366 H   0  0  0  0  0  0  0  0  0  0  0  0
   -4.4450   -0.6840    0.2062 H   0  0  0  0  0  0  0  0  0  0  0  0
    0.6090    0.2293   -2.2038 H   0  0  0  0  0  0  0  0  0  0  0  0
    0.7544   -2.5682   -0.2850 H   0  0  0  0  0  0  0  0  0  0  0  0
  1 15  1  0  0  0  0
  1 16  1  0  0  0  0
  2  3  1  0  0  0  0
  2  1  1  0  0  0  0
  3  1  1  0  0  0  0
  4  3  1  0  0  0  0
  4  5  1  0  0  0  0
  5 21  1  0  0  0  0
  5 22  1  0  0  0  0
  6  5  1  0  0  0  0
  6  7  1  0  0  0  0
  7 23  1  6  0  0  0
  7  9  1  0  0  0  0
  7  8  1  0  0  0  0
  8 24  1  0  0  0  0
  8 25  1  0  0  0  0
  9 27  1  0  0  0  0
  9 26  1  0  0  0  0
 10 29  1  0  0  0  0
 10  9  1  0  0  0  0
 11 12  1  0  0  0  0
 11 10  1  0  0  0  0
 12 34  1  0  0  0  0
 12 32  1  0  0  0  0
 13  6  1  0  0  0  0
 14  6  1  0  0  0  0
 14 36  1  0  0  0  0
 17  2  1  0  0  0  0
 18  2  1  0  0  0  0
 19  3  1  0  0  0  0
 20  4  1  0  0  0  0
 28 10  1  0  0  0  0
 30 11  1  0  0  0  0
 31 11  1  0  0  0  0
 33 12  1  0  0  0  0
 35 13  1  0  0  0  0
M  END
