omegapdb_1gs5_04.xyz
 OpenBabel12161914463D

 24 23  0  0  1  0  0  0  0  0999 V2000
   -0.1975   -1.0117   -0.1539 C   0  0  2  0  0  0  0  0  0  0  0  0
   -0.6007   -1.2566    1.3109 C   0  0  0  0  0  0  0  0  0  0  0  0
    0.1870   -1.4765    2.1957 O   0  0  0  0  0  0  0  0  0  0  0  0
   -1.9195   -1.2247    1.5295 O   0  0  0  0  0  0  0  0  0  0  0  0
    1.2902   -1.2744   -0.4154 C   0  0  0  0  0  0  0  0  0  0  0  0
    2.2362   -0.0815   -0.1843 C   0  0  0  0  0  0  0  0  0  0  0  0
    2.0151    0.5604    1.1621 C   0  0  0  0  0  0  0  0  0  0  0  0
    1.2148    1.4499    1.3635 O   0  0  0  0  0  0  0  0  0  0  0  0
    2.7670    0.0241    2.1321 O   0  0  0  0  0  0  0  0  0  0  0  0
   -0.6285    0.3084   -0.5984 N   0  0  0  0  0  0  0  0  0  0  0  0
   -1.9055    0.5168   -1.0123 C   0  0  0  0  0  0  0  0  0  0  0  0
   -2.7501   -0.3816   -0.9961 O   0  0  0  0  0  0  0  0  0  0  0  0
   -2.2232    1.8995   -1.5266 C   0  0  0  0  0  0  0  0  0  0  0  0
   -0.7817   -1.7191   -0.7527 H   0  0  0  0  0  0  0  0  0  0  0  0
   -2.3993   -1.0815    0.6831 H   0  0  0  0  0  0  0  0  0  0  0  0
    1.4063   -1.5978   -1.4541 H   0  0  0  0  0  0  0  0  0  0  0  0
    1.5901   -2.1118    0.2219 H   0  0  0  0  0  0  0  0  0  0  0  0
    2.0667    0.6780   -0.9532 H   0  0  0  0  0  0  0  0  0  0  0  0
    3.2720   -0.4198   -0.2638 H   0  0  0  0  0  0  0  0  0  0  0  0
    2.4336    0.3939    2.9668 H   0  0  0  0  0  0  0  0  0  0  0  0
   -0.0947    1.0990   -0.2502 H   0  0  0  0  0  0  0  0  0  0  0  0
   -3.1797    2.2157   -1.1027 H   0  0  0  0  0  0  0  0  0  0  0  0
   -1.4505    2.6368   -1.2880 H   0  0  0  0  0  0  0  0  0  0  0  0
   -2.3480    1.8545   -2.6140 H   0  0  0  0  0  0  0  0  0  0  0  0
  1 14  1  6  0  0  0
  1  2  1  0  0  0  0
  2  4  1  0  0  0  0
  2  3  2  0  0  0  0
  5  6  1  0  0  0  0
  5  1  1  0  0  0  0
  5 17  1  0  0  0  0
  6  7  1  0  0  0  0
  7  8  2  0  0  0  0
  7  9  1  0  0  0  0
  9 20  1  0  0  0  0
 10 21  1  0  0  0  0
 10  1  1  0  0  0  0
 11 12  2  0  0  0  0
 11 10  1  0  0  0  0
 13 23  1  0  0  0  0
 13 22  1  0  0  0  0
 13 11  1  0  0  0  0
 15  4  1  0  0  0  0
 16  5  1  0  0  0  0
 18  6  1  0  0  0  0
 19  6  1  0  0  0  0
 24 13  1  0  0  0  0
M  END
