omegacsd_FABSOQ10_02.xyz
 OpenBabel12161914463D

 45 47  0  0  1  0  0  0  0  0999 V2000
    0.0546   -0.3364    0.0710 S   0  0  0  0  0  0  0  0  0  0  0  0
   -1.0076   -0.6796   -1.2507 C   0  0  0  0  0  0  0  0  0  0  0  0
   -0.8847   -1.9803   -1.6510 C   0  0  0  0  0  0  0  0  0  0  0  0
    0.0892   -2.7070   -0.9098 C   0  0  0  0  0  0  0  0  0  0  0  0
    0.7099   -1.9402    0.0323 C   0  0  0  0  0  0  0  0  0  0  0  0
    1.8126   -2.3286    0.9759 C   0  0  1  0  0  0  0  0  0  0  0  0
    2.2405   -3.6680    0.7738 O   0  0  0  0  0  0  0  0  0  0  0  0
    2.9764   -1.3482    0.9437 C   0  0  0  0  0  0  0  0  0  0  0  0
    3.6384   -1.0254    2.1291 C   0  0  0  0  0  0  0  0  0  0  0  0
    4.7293   -0.1742    2.1330 C   0  0  0  0  0  0  0  0  0  0  0  0
    5.1908    0.3709    0.9312 C   0  0  0  0  0  0  0  0  0  0  0  0
    6.2613    1.2030    1.0272 O   0  0  0  0  0  0  0  0  0  0  0  0
    6.7383    1.7904   -0.1634 C   0  0  0  0  0  0  0  0  0  0  0  0
    4.5505    0.0469   -0.2643 C   0  0  0  0  0  0  0  0  0  0  0  0
    3.4496   -0.8061   -0.2470 C   0  0  0  0  0  0  0  0  0  0  0  0
   -1.8613    0.4192   -1.8388 C   0  0  2  0  0  0  0  0  0  0  0  0
   -1.0898    1.5087   -2.3016 O   0  0  0  0  0  0  0  0  0  0  0  0
   -2.9665    0.8512   -0.8881 C   0  0  0  0  0  0  0  0  0  0  0  0
   -3.8753   -0.0891   -0.4163 C   0  0  0  0  0  0  0  0  0  0  0  0
   -4.9213    0.2751    0.4262 C   0  0  0  0  0  0  0  0  0  0  0  0
   -5.0594    1.6076    0.8130 C   0  0  0  0  0  0  0  0  0  0  0  0
   -6.0389    2.0713    1.6330 O   0  0  0  0  0  0  0  0  0  0  0  0
   -6.9721    1.1351    2.1257 C   0  0  0  0  0  0  0  0  0  0  0  0
   -4.1500    2.5613    0.3451 C   0  0  0  0  0  0  0  0  0  0  0  0
   -3.1214    2.1824   -0.4997 C   0  0  0  0  0  0  0  0  0  0  0  0
   -1.4697   -2.4063   -2.4593 H   0  0  0  0  0  0  0  0  0  0  0  0
    0.3298   -3.7546   -1.0567 H   0  0  0  0  0  0  0  0  0  0  0  0
    1.4041   -2.3268    1.9961 H   0  0  0  0  0  0  0  0  0  0  0  0
    2.7784   -3.6906   -0.0300 H   0  0  0  0  0  0  0  0  0  0  0  0
    3.2866   -1.4473    3.0687 H   0  0  0  0  0  0  0  0  0  0  0  0
    5.2407    0.0908    3.0534 H   0  0  0  0  0  0  0  0  0  0  0  0
    7.0873    1.0299   -0.8747 H   0  0  0  0  0  0  0  0  0  0  0  0
    5.9665    2.4048   -0.6462 H   0  0  0  0  0  0  0  0  0  0  0  0
    7.5756    2.4256    0.1293 H   0  0  0  0  0  0  0  0  0  0  0  0
    4.8924    0.4543   -1.2091 H   0  0  0  0  0  0  0  0  0  0  0  0
    2.9407   -1.0304   -1.1836 H   0  0  0  0  0  0  0  0  0  0  0  0
   -2.3397    0.0004   -2.7363 H   0  0  0  0  0  0  0  0  0  0  0  0
   -0.4124    1.6845   -1.6307 H   0  0  0  0  0  0  0  0  0  0  0  0
   -3.7743   -1.1315   -0.7112 H   0  0  0  0  0  0  0  0  0  0  0  0
   -5.6186   -0.4822    0.7663 H   0  0  0  0  0  0  0  0  0  0  0  0
   -7.5368    0.6620    1.3110 H   0  0  0  0  0  0  0  0  0  0  0  0
   -6.4804    0.3542    2.7207 H   0  0  0  0  0  0  0  0  0  0  0  0
   -7.6566    1.6984    2.7616 H   0  0  0  0  0  0  0  0  0  0  0  0
   -4.2780    3.5943    0.6546 H   0  0  0  0  0  0  0  0  0  0  0  0
   -2.4282    2.9304   -0.8763 H   0  0  0  0  0  0  0  0  0  0  0  0
  2  1  1  0  0  0  0
  3  2  2  0  0  0  0
  3  4  1  0  0  0  0
  4  5  2  0  0  0  0
  5  1  1  0  0  0  0
  5  6  1  0  0  0  0
  6 28  1  1  0  0  0
  7  6  1  0  0  0  0
  8  6  1  0  0  0  0
  8  9  2  0  0  0  0
  9 10  1  0  0  0  0
  9 30  1  0  0  0  0
 10 31  1  0  0  0  0
 11 12  1  0  0  0  0
 11 10  2  0  0  0  0
 13 34  1  0  0  0  0
 13 12  1  0  0  0  0
 14 15  2  0  0  0  0
 14 11  1  0  0  0  0
 15  8  1  0  0  0  0
 16 37  1  6  0  0  0
 16  2  1  0  0  0  0
 16 18  1  0  0  0  0
 17 16  1  0  0  0  0
 17 38  1  0  0  0  0
 18 25  2  0  0  0  0
 18 19  1  0  0  0  0
 19 20  2  0  0  0  0
 20 40  1  0  0  0  0
 20 21  1  0  0  0  0
 21 22  1  0  0  0  0
 22 23  1  0  0  0  0
 23 42  1  0  0  0  0
 23 43  1  0  0  0  0
 24 44  1  0  0  0  0
 24 21  2  0  0  0  0
 25 24  1  0  0  0  0
 26  3  1  0  0  0  0
 27  4  1  0  0  0  0
 29  7  1  0  0  0  0
 32 13  1  0  0  0  0
 33 13  1  0  0  0  0
 35 14  1  0  0  0  0
 36 15  1  0  0  0  0
 39 19  1  0  0  0  0
 41 23  1  0  0  0  0
 45 25  1  0  0  0  0
M  END
