omegapdb_1qxw_07.xyz
 OpenBabel12161914463D

 36 36  0  0  1  0  0  0  0  0999 V2000
    3.9272    0.3882    0.8360 C   0  0  0  0  0  0  0  0  0  0  0  0
    4.2416    1.7245    0.2324 C   0  0  0  0  0  0  0  0  0  0  0  0
    3.3094    0.7870   -0.4761 C   0  0  0  0  0  0  0  0  0  0  0  0
    1.9101    1.1629   -0.4961 N   0  0  0  0  0  0  0  0  0  0  0  0
    0.9905    0.1112   -0.9349 C   0  0  0  0  0  0  0  0  0  0  0  0
    0.7342   -0.8583    0.2317 C   0  0  0  0  0  0  0  0  0  0  0  0
   -0.5348   -1.7404    0.0700 C   0  0  1  0  0  0  0  0  0  0  0  0
   -0.3271   -2.8977    0.9527 N   0  0  0  0  0  0  0  0  0  0  0  0
   -1.8721   -1.0573    0.3777 C   0  0  0  0  0  0  0  0  0  0  0  0
   -2.2636    0.1652   -0.4488 C   0  0  0  0  0  0  0  0  0  0  0  0
   -3.7336    0.5399   -0.2607 C   0  0  0  0  0  0  0  0  0  0  0  0
   -4.1350    1.7784   -1.0574 C   0  0  0  0  0  0  0  0  0  0  0  0
    0.5850   -0.1251    1.4296 O   0  0  0  0  0  0  0  0  0  0  0  0
    1.8540   -1.7083    0.2660 O   0  0  0  0  0  0  0  0  0  0  0  0
    4.7019   -0.3715    0.8093 H   0  0  0  0  0  0  0  0  0  0  0  0
    3.2670    0.3401    1.6980 H   0  0  0  0  0  0  0  0  0  0  0  0
    3.7977    2.6050    0.6883 H   0  0  0  0  0  0  0  0  0  0  0  0
    5.2298    1.8819   -0.1907 H   0  0  0  0  0  0  0  0  0  0  0  0
    3.6878    0.2728   -1.3627 H   0  0  0  0  0  0  0  0  0  0  0  0
    1.8051    1.9721   -1.1006 H   0  0  0  0  0  0  0  0  0  0  0  0
    1.3858   -0.4609   -1.7823 H   0  0  0  0  0  0  0  0  0  0  0  0
    0.0655    0.5943   -1.2571 H   0  0  0  0  0  0  0  0  0  0  0  0
   -0.5392   -2.1130   -0.9632 H   0  0  0  0  0  0  0  0  0  0  0  0
   -0.5560   -2.6249    1.9069 H   0  0  0  0  0  0  0  0  0  0  0  0
   -0.9515   -3.6577    0.7008 H   0  0  0  0  0  0  0  0  0  0  0  0
   -1.8941   -0.7915    1.4415 H   0  0  0  0  0  0  0  0  0  0  0  0
   -2.6462   -1.8277    0.2415 H   0  0  0  0  0  0  0  0  0  0  0  0
   -2.0789   -0.0225   -1.5179 H   0  0  0  0  0  0  0  0  0  0  0  0
   -1.6428    1.0254   -0.1615 H   0  0  0  0  0  0  0  0  0  0  0  0
   -4.3641   -0.3088   -0.5590 H   0  0  0  0  0  0  0  0  0  0  0  0
   -3.9259    0.7094    0.8074 H   0  0  0  0  0  0  0  0  0  0  0  0
   -3.9849    1.6202   -2.1318 H   0  0  0  0  0  0  0  0  0  0  0  0
   -5.1884    2.0338   -0.9009 H   0  0  0  0  0  0  0  0  0  0  0  0
   -3.5330    2.6461   -0.7634 H   0  0  0  0  0  0  0  0  0  0  0  0
    1.1219    0.6759    1.2824 H   0  0  0  0  0  0  0  0  0  0  0  0
    1.5570   -2.4686    0.8001 H   0  0  0  0  0  0  0  0  0  0  0  0
  1 16  1  0  0  0  0
  2 17  1  0  0  0  0
  2  1  1  0  0  0  0
  3  2  1  0  0  0  0
  3  1  1  0  0  0  0
  4  3  1  0  0  0  0
  5  4  1  0  0  0  0
  5  6  1  0  0  0  0
  6 14  1  0  0  0  0
  6 13  1  0  0  0  0
  7 23  1  6  0  0  0
  7  6  1  0  0  0  0
  7  9  1  0  0  0  0
  7  8  1  0  0  0  0
  8 24  1  0  0  0  0
  9 26  1  0  0  0  0
 10 11  1  0  0  0  0
 10 29  1  0  0  0  0
 10  9  1  0  0  0  0
 11 31  1  0  0  0  0
 12 33  1  0  0  0  0
 12 34  1  0  0  0  0
 12 11  1  0  0  0  0
 14 36  1  0  0  0  0
 15  1  1  0  0  0  0
 18  2  1  0  0  0  0
 19  3  1  0  0  0  0
 20  4  1  0  0  0  0
 21  5  1  0  0  0  0
 22  5  1  0  0  0  0
 25  8  1  0  0  0  0
 27  9  1  0  0  0  0
 28 10  1  0  0  0  0
 30 11  1  0  0  0  0
 32 12  1  0  0  0  0
 35 13  1  0  0  0  0
M  END
