omegacsd_FIBREN_04.xyz
 OpenBabel12161914463D

 39 41  0  0  1  0  0  0  0  0999 V2000
   -3.5475   -1.1595   -1.4836 N   0  0  0  0  0  0  0  0  0  0  0  0
   -2.3458   -1.4207   -2.0081 C   0  0  0  0  0  0  0  0  0  0  0  0
   -1.1463   -1.0822   -1.5000 N   0  0  0  0  0  0  0  0  0  0  0  0
   -1.1100   -0.4200   -0.3358 C   0  0  0  0  0  0  0  0  0  0  0  0
   -2.3156   -0.0977    0.3073 C   0  0  2  0  0  0  0  0  0  0  0  0
   -3.4616   -0.5009   -0.3395 C   0  0  0  0  0  0  0  0  0  0  0  0
   -4.5157   -0.0912    0.4201 O   0  0  0  0  0  0  0  0  0  0  0  0
   -3.9331    0.5439    1.4948 C   0  0  0  0  0  0  0  0  0  0  0  0
   -2.6437    0.5752    1.4858 N   0  0  0  0  0  0  0  0  0  0  0  0
   -4.8672    1.0998    2.5072 C   0  0  0  0  0  0  0  0  0  0  0  0
    0.0798   -0.0974    0.2292 N   0  0  0  0  0  0  0  0  0  0  0  0
    1.3281   -0.1905   -0.4998 C   0  0  1  0  0  0  0  0  0  0  0  0
    1.4934    0.9705   -1.4990 C   0  0  0  0  0  0  0  0  0  0  0  0
    1.3003    2.3570   -0.9272 C   0  0  0  0  0  0  0  0  0  0  0  0
    0.8839    2.6468    0.1740 O   0  0  0  0  0  0  0  0  0  0  0  0
    1.6297    3.3005   -1.8263 O   0  0  0  0  0  0  0  0  0  0  0  0
    2.5033   -0.3727    0.4463 C   0  0  0  0  0  0  0  0  0  0  0  0
    3.4558   -1.3549    0.1659 C   0  0  0  0  0  0  0  0  0  0  0  0
    4.5649   -1.5343    0.9873 C   0  0  0  0  0  0  0  0  0  0  0  0
    4.7333   -0.7292    2.1086 C   0  0  0  0  0  0  0  0  0  0  0  0
    3.7869    0.2501    2.3985 C   0  0  0  0  0  0  0  0  0  0  0  0
    2.6785    0.4289    1.5754 C   0  0  0  0  0  0  0  0  0  0  0  0
   -2.3269   -2.1666   -3.3122 C   0  0  0  0  0  0  0  0  0  0  0  0
   -5.5088    1.8626    2.0551 H   0  0  0  0  0  0  0  0  0  0  0  0
   -5.5111    0.3093    2.9043 H   0  0  0  0  0  0  0  0  0  0  0  0
   -4.3024    1.5481    3.3258 H   0  0  0  0  0  0  0  0  0  0  0  0
    0.0355    0.6125    0.9486 H   0  0  0  0  0  0  0  0  0  0  0  0
    1.2475   -1.0980   -1.1031 H   0  0  0  0  0  0  0  0  0  0  0  0
    2.4706    0.9246   -1.9890 H   0  0  0  0  0  0  0  0  0  0  0  0
    0.7405    0.8429   -2.2883 H   0  0  0  0  0  0  0  0  0  0  0  0
    1.4609    4.1561   -1.3973 H   0  0  0  0  0  0  0  0  0  0  0  0
    3.3278   -1.9938   -0.7065 H   0  0  0  0  0  0  0  0  0  0  0  0
    5.2945   -2.3061    0.7533 H   0  0  0  0  0  0  0  0  0  0  0  0
    5.5986   -0.8613    2.7538 H   0  0  0  0  0  0  0  0  0  0  0  0
    3.9052    0.8792    3.2777 H   0  0  0  0  0  0  0  0  0  0  0  0
    1.9650    1.2150    1.8081 H   0  0  0  0  0  0  0  0  0  0  0  0
   -1.7184   -3.0710   -3.2232 H   0  0  0  0  0  0  0  0  0  0  0  0
   -1.8828   -1.5425   -4.0936 H   0  0  0  0  0  0  0  0  0  0  0  0
   -3.3469   -2.4325   -3.5947 H   0  0  0  0  0  0  0  0  0  0  0  0
  1  6  2  0  0  0  0
  2  3  1  0  0  0  0
  2  1  2  0  0  0  0
  3  4  2  0  0  0  0
  4 11  1  0  0  0  0
  4  5  1  0  0  0  0
  5  6  1  6  0  0  0
  5  9  1  0  0  0  0
  6  7  1  0  0  0  0
  7  8  1  0  0  0  0
  8 10  1  0  0  0  0
  9  8  2  0  0  0  0
 10 25  1  0  0  0  0
 10 26  1  0  0  0  0
 11 27  1  0  0  0  0
 12 28  1  6  0  0  0
 12 11  1  0  0  0  0
 12 17  1  0  0  0  0
 13 14  1  0  0  0  0
 13 12  1  0  0  0  0
 14 15  2  0  0  0  0
 16 31  1  0  0  0  0
 16 14  1  0  0  0  0
 17 22  1  0  0  0  0
 18 17  2  0  0  0  0
 18 19  1  0  0  0  0
 19 20  2  0  0  0  0
 20 21  1  0  0  0  0
 20 34  1  0  0  0  0
 21 35  1  0  0  0  0
 22 36  1  0  0  0  0
 22 21  2  0  0  0  0
 23 37  1  0  0  0  0
 23  2  1  0  0  0  0
 24 10  1  0  0  0  0
 29 13  1  0  0  0  0
 30 13  1  0  0  0  0
 32 18  1  0  0  0  0
 33 19  1  0  0  0  0
 38 23  1  0  0  0  0
 39 23  1  0  0  0  0
M  RAD  1   5   2
M  END
