omegapdb_1z1r_05.xyz
 OpenBabel12161914463D

 66 68  0  0  1  0  0  0  0  0999 V2000
    0.4248   -0.0720    0.5939 C   0  0  2  0  0  0  0  0  0  0  0  0
    0.8679   -0.9881   -0.5658 C   0  0  0  0  0  0  0  0  0  0  0  0
   -0.2025   -1.9907   -0.9308 C   0  0  0  0  0  0  0  0  0  0  0  0
   -0.5169   -3.0362   -0.0577 C   0  0  0  0  0  0  0  0  0  0  0  0
   -1.6372   -3.8277   -0.2624 C   0  0  0  0  0  0  0  0  0  0  0  0
   -2.4820   -3.5673   -1.3409 C   0  0  0  0  0  0  0  0  0  0  0  0
   -2.1331   -2.5953   -2.2778 C   0  0  0  0  0  0  0  0  0  0  0  0
   -0.9994   -1.8193   -2.0658 C   0  0  0  0  0  0  0  0  0  0  0  0
   -3.6463   -4.2796   -1.4371 O   0  0  0  0  0  0  0  0  0  0  0  0
   -4.8566   -3.5252   -1.4395 C   0  0  0  0  0  0  0  0  0  0  0  0
   -5.1540   -2.7944   -0.1301 C   0  0  0  0  0  0  0  0  0  0  0  0
   -4.4747   -1.4348    0.0343 C   0  0  0  0  0  0  0  0  0  0  0  0
   -4.7404   -0.8702    1.4257 C   0  0  0  0  0  0  0  0  0  0  0  0
   -5.3835   -1.4787    2.2621 O   0  0  0  0  0  0  0  0  0  0  0  0
   -4.2414    0.3844    1.7173 N   0  0  0  0  0  0  0  0  0  0  0  0
   -3.1941    1.0885    1.0031 C   0  0  2  0  0  0  0  0  0  0  0  0
   -1.7944    0.6081    1.4312 C   0  0  0  0  0  0  0  0  0  0  0  0
   -1.4771    0.5329    2.6094 O   0  0  0  0  0  0  0  0  0  0  0  0
   -0.9616    0.3052    0.4018 N   0  0  0  0  0  0  0  0  0  0  0  0
   -3.2944    2.5878    1.2943 C   0  0  0  0  0  0  0  0  0  0  0  0
   -2.3343    3.4070    0.4468 C   0  0  0  0  0  0  0  0  0  0  0  0
   -1.6951    2.9246   -0.4870 O   0  0  0  0  0  0  0  0  0  0  0  0
   -2.2285    4.7123    0.7815 N   0  0  0  0  0  0  0  0  0  0  0  0
    1.2800    1.2078    0.7223 C   0  0  2  0  0  0  0  0  0  0  0  0
    1.1915    2.0061   -0.4467 O   0  0  0  0  0  0  0  0  0  0  0  0
    2.7604    0.9269    0.9492 C   0  0  0  0  0  0  0  0  0  0  0  0
    3.4698    2.2006    0.9749 N   0  0  0  0  0  0  0  0  0  0  0  0
    5.0681    2.2497    1.4026 S   0  0  0  0  0  0  0  0  0  0  0  0
    5.1799    1.5263    2.6557 O   0  0  0  0  0  0  0  0  0  0  0  0
    5.4697    3.6374    1.2675 O   0  0  0  0  0  0  0  0  0  0  0  0
    5.9306    1.3127    0.1659 C   0  0  0  0  0  0  0  0  0  0  0  0
    6.3949    1.9629   -0.9733 C   0  0  0  0  0  0  0  0  0  0  0  0
    7.0417    1.2223   -1.9568 C   0  0  0  0  0  0  0  0  0  0  0  0
    7.2317   -0.1478   -1.7917 C   0  0  0  0  0  0  0  0  0  0  0  0
    6.7813   -0.7829   -0.6365 C   0  0  0  0  0  0  0  0  0  0  0  0
    6.1296   -0.0531    0.3512 C   0  0  0  0  0  0  0  0  0  0  0  0
    0.4676   -0.6122    1.5457 H   0  0  0  0  0  0  0  0  0  0  0  0
    1.1090   -0.3580   -1.4308 H   0  0  0  0  0  0  0  0  0  0  0  0
    1.7858   -1.5163   -0.2774 H   0  0  0  0  0  0  0  0  0  0  0  0
    0.1082   -3.2115    0.8164 H   0  0  0  0  0  0  0  0  0  0  0  0
   -1.9116   -4.6182    0.4317 H   0  0  0  0  0  0  0  0  0  0  0  0
   -2.7583   -2.4365   -3.1532 H   0  0  0  0  0  0  0  0  0  0  0  0
   -0.7556   -1.0362   -2.7812 H   0  0  0  0  0  0  0  0  0  0  0  0
   -5.6306   -4.2725   -1.6304 H   0  0  0  0  0  0  0  0  0  0  0  0
   -4.8638   -2.8172   -2.2817 H   0  0  0  0  0  0  0  0  0  0  0  0
   -6.2372   -2.6357   -0.0649 H   0  0  0  0  0  0  0  0  0  0  0  0
   -4.8893   -3.4395    0.7136 H   0  0  0  0  0  0  0  0  0  0  0  0
   -3.3884   -1.4937   -0.1068 H   0  0  0  0  0  0  0  0  0  0  0  0
   -4.8449   -0.7286   -0.7226 H   0  0  0  0  0  0  0  0  0  0  0  0
   -4.2947    0.5768    2.7121 H   0  0  0  0  0  0  0  0  0  0  0  0
   -3.3372    0.9324   -0.0700 H   0  0  0  0  0  0  0  0  0  0  0  0
   -1.2009    0.6582   -0.5162 H   0  0  0  0  0  0  0  0  0  0  0  0
   -4.3234    2.9169    1.1115 H   0  0  0  0  0  0  0  0  0  0  0  0
   -3.0763    2.7525    2.3570 H   0  0  0  0  0  0  0  0  0  0  0  0
   -1.6109    5.3049    0.2476 H   0  0  0  0  0  0  0  0  0  0  0  0
   -2.7586    5.1178    1.5359 H   0  0  0  0  0  0  0  0  0  0  0  0
    0.8969    1.7680    1.5927 H   0  0  0  0  0  0  0  0  0  0  0  0
    0.3132    2.4195   -0.4728 H   0  0  0  0  0  0  0  0  0  0  0  0
    3.1508    0.2731    0.1557 H   0  0  0  0  0  0  0  0  0  0  0  0
    2.9172    0.4258    1.9092 H   0  0  0  0  0  0  0  0  0  0  0  0
    3.2285    2.8337    0.2203 H   0  0  0  0  0  0  0  0  0  0  0  0
    6.2621    3.0370   -1.0709 H   0  0  0  0  0  0  0  0  0  0  0  0
    7.4023    1.7167   -2.8544 H   0  0  0  0  0  0  0  0  0  0  0  0
    7.7387   -0.7214   -2.5638 H   0  0  0  0  0  0  0  0  0  0  0  0
    6.9407   -1.8494   -0.5045 H   0  0  0  0  0  0  0  0  0  0  0  0
    5.7860   -0.5269    1.2669 H   0  0  0  0  0  0  0  0  0  0  0  0
  1 24  1  0  0  0  0
  1 37  1  1  0  0  0
  2 39  1  0  0  0  0
  2  1  1  0  0  0  0
  3  2  1  0  0  0  0
  3  4  2  0  0  0  0
  4 40  1  0  0  0  0
  5  4  1  0  0  0  0
  5 41  1  0  0  0  0
  6  5  2  0  0  0  0
  7  8  2  0  0  0  0
  7  6  1  0  0  0  0
  8  3  1  0  0  0  0
  9  6  1  0  0  0  0
 10  9  1  0  0  0  0
 10 11  1  0  0  0  0
 11 46  1  0  0  0  0
 11 12  1  0  0  0  0
 11 47  1  0  0  0  0
 12 13  1  0  0  0  0
 13 15  1  0  0  0  0
 13 14  2  0  0  0  0
 15 50  1  0  0  0  0
 16 51  1  6  0  0  0
 16 20  1  0  0  0  0
 16 17  1  0  0  0  0
 16 15  1  0  0  0  0
 17 18  2  0  0  0  0
 19  1  1  0  0  0  0
 19 17  1  0  0  0  0
 20 54  1  0  0  0  0
 21 23  1  0  0  0  0
 21 20  1  0  0  0  0
 22 21  2  0  0  0  0
 23 56  1  0  0  0  0
 24 26  1  0  0  0  0
 24 57  1  1  0  0  0
 25 24  1  0  0  0  0
 26 27  1  0  0  0  0
 26 60  1  0  0  0  0
 27 28  1  0  0  0  0
 28 29  2  0  0  0  0
 30 28  2  0  0  0  0
 31 36  1  0  0  0  0
 31 28  1  0  0  0  0
 32 31  2  0  0  0  0
 33 34  2  0  0  0  0
 33 32  1  0  0  0  0
 34 35  1  0  0  0  0
 35 65  1  0  0  0  0
 35 36  2  0  0  0  0
 36 66  1  0  0  0  0
 38  2  1  0  0  0  0
 42  7  1  0  0  0  0
 43  8  1  0  0  0  0
 44 10  1  0  0  0  0
 45 10  1  0  0  0  0
 48 12  1  0  0  0  0
 49 12  1  0  0  0  0
 52 19  1  0  0  0  0
 53 20  1  0  0  0  0
 55 23  1  0  0  0  0
 58 25  1  0  0  0  0
 59 26  1  0  0  0  0
 61 27  1  0  0  0  0
 62 32  1  0  0  0  0
 63 33  1  0  0  0  0
 64 34  1  0  0  0  0
M  END
