omegapdb_2byh_05.xyz
 OpenBabel12161914463D

 40 42  0  0  0  0  0  0  0  0999 V2000
    5.7401    3.1727    1.5756 O   0  0  0  0  0  0  0  0  0  0  0  0
    5.5459    2.0640    2.0364 C   0  0  0  0  0  0  0  0  0  0  0  0
    6.5006    1.4649    3.0483 C   0  0  0  0  0  0  0  0  0  0  0  0
    4.3564    1.2642    1.6113 C   0  0  0  0  0  0  0  0  0  0  0  0
    4.0901   -0.0146    2.1029 C   0  0  0  0  0  0  0  0  0  0  0  0
    2.9717   -0.7135    1.6759 C   0  0  0  0  0  0  0  0  0  0  0  0
    2.0960   -0.1490    0.7393 C   0  0  0  0  0  0  0  0  0  0  0  0
    2.3536    1.1325    0.2419 C   0  0  0  0  0  0  0  0  0  0  0  0
    3.4748    1.8186    0.6809 C   0  0  0  0  0  0  0  0  0  0  0  0
    0.9879   -0.9191    0.3383 N   0  0  0  0  0  0  0  0  0  0  0  0
    0.0306   -0.6391   -0.6083 C   0  0  0  0  0  0  0  0  0  0  0  0
    0.0189    0.4102   -1.2365 O   0  0  0  0  0  0  0  0  0  0  0  0
   -0.9545   -1.7449   -0.7965 C   0  0  0  0  0  0  0  0  0  0  0  0
   -0.6016   -3.1174   -0.7653 C   0  0  0  0  0  0  0  0  0  0  0  0
   -1.6439   -3.9089   -0.9111 N   0  0  0  0  0  0  0  0  0  0  0  0
   -2.6797   -3.0750   -1.0236 N   0  0  0  0  0  0  0  0  0  0  0  0
   -2.3466   -1.7587   -0.9951 C   0  0  0  0  0  0  0  0  0  0  0  0
   -3.3393   -0.6878   -1.1984 C   0  0  0  0  0  0  0  0  0  0  0  0
   -2.9431    0.5598   -1.6841 C   0  0  0  0  0  0  0  0  0  0  0  0
   -3.8555    1.5779   -1.8874 C   0  0  0  0  0  0  0  0  0  0  0  0
   -3.3195    3.1309   -2.4808 Cl  0  0  0  0  0  0  0  0  0  0  0  0
   -5.2155    1.3927   -1.6284 C   0  0  0  0  0  0  0  0  0  0  0  0
   -6.1449    2.3504   -1.8113 O   0  0  0  0  0  0  0  0  0  0  0  0
   -5.6339    0.1493   -1.1652 C   0  0  0  0  0  0  0  0  0  0  0  0
   -4.7164   -0.8690   -0.9640 C   0  0  0  0  0  0  0  0  0  0  0  0
   -5.1388   -2.0960   -0.5406 O   0  0  0  0  0  0  0  0  0  0  0  0
    6.9363    0.5338    2.6684 H   0  0  0  0  0  0  0  0  0  0  0  0
    5.9810    1.2302    3.9842 H   0  0  0  0  0  0  0  0  0  0  0  0
    7.2962    2.1855    3.2440 H   0  0  0  0  0  0  0  0  0  0  0  0
    4.7601   -0.4751    2.8241 H   0  0  0  0  0  0  0  0  0  0  0  0
    2.7844   -1.7098    2.0698 H   0  0  0  0  0  0  0  0  0  0  0  0
    1.6820    1.5743   -0.4805 H   0  0  0  0  0  0  0  0  0  0  0  0
    3.6885    2.8122    0.2974 H   0  0  0  0  0  0  0  0  0  0  0  0
    0.8764   -1.7887    0.8364 H   0  0  0  0  0  0  0  0  0  0  0  0
    0.3854   -3.5599   -0.6942 H   0  0  0  0  0  0  0  0  0  0  0  0
   -3.6242   -3.4325   -1.0439 H   0  0  0  0  0  0  0  0  0  0  0  0
   -1.9009    0.7331   -1.9098 H   0  0  0  0  0  0  0  0  0  0  0  0
   -5.7141    3.1558   -2.1346 H   0  0  0  0  0  0  0  0  0  0  0  0
   -6.6957   -0.0008   -0.9779 H   0  0  0  0  0  0  0  0  0  0  0  0
   -6.0893   -2.0537   -0.3719 H   0  0  0  0  0  0  0  0  0  0  0  0
  1  2  2  0  0  0  0
  2  3  1  0  0  0  0
  3 29  1  0  0  0  0
  3 28  1  0  0  0  0
  4  2  1  0  0  0  0
  4  5  2  0  0  0  0
  5 30  1  0  0  0  0
  6 31  1  0  0  0  0
  6  5  1  0  0  0  0
  7  6  2  0  0  0  0
  8  9  2  0  0  0  0
  8  7  1  0  0  0  0
  9  4  1  0  0  0  0
 10  7  1  0  0  0  0
 10 34  1  0  0  0  0
 11 10  1  0  0  0  0
 12 11  2  0  0  0  0
 13 14  1  0  0  0  0
 13 11  1  0  0  0  0
 14 35  1  0  0  0  0
 15 14  2  0  0  0  0
 16 17  1  0  0  0  0
 16 15  1  0  0  0  0
 17 13  2  0  0  0  0
 18 17  1  0  0  0  0
 18 25  2  0  0  0  0
 19 18  1  0  0  0  0
 20 19  2  0  0  0  0
 20 22  1  0  0  0  0
 21 20  1  0  0  0  0
 22 24  2  0  0  0  0
 23 22  1  0  0  0  0
 24 39  1  0  0  0  0
 24 25  1  0  0  0  0
 25 26  1  0  0  0  0
 26 40  1  0  0  0  0
 27  3  1  0  0  0  0
 32  8  1  0  0  0  0
 33  9  1  0  0  0  0
 36 16  1  0  0  0  0
 37 19  1  0  0  0  0
 38 23  1  0  0  0  0
M  END
