omegapdb_1m5f_18.xyz
 OpenBabel12161914463D

 25 25  0  0  1  0  0  0  0  0999 V2000
   -0.2645   -2.7553   -0.9993 O   0  0  0  0  0  0  0  0  0  0  0  0
   -1.4001   -2.2050   -1.4943 C   0  0  0  0  0  0  0  0  0  0  0  0
   -2.0350   -2.7118   -2.3786 O   0  0  0  0  0  0  0  0  0  0  0  0
   -1.7456   -0.9310   -0.8071 C   0  0  0  0  0  0  0  0  0  0  0  0
   -2.8574   -0.3478   -1.1751 N   0  0  0  0  0  0  0  0  0  0  0  0
   -2.9673    0.7652   -0.3929 O   0  0  0  0  0  0  0  0  0  0  0  0
   -1.9239    0.8417    0.4491 C   0  0  0  0  0  0  0  0  0  0  0  0
   -1.0777   -0.2062    0.2322 C   0  0  0  0  0  0  0  0  0  0  0  0
    0.2931   -0.3572    0.8136 C   0  0  0  0  0  0  0  0  0  0  0  0
    1.3079    0.4835    0.0300 C   0  0  2  0  0  0  0  0  0  0  0  0
    1.2935    0.0987   -1.3685 N   0  0  0  0  0  0  0  0  0  0  0  0
    2.6638    0.4725    0.7301 C   0  0  0  0  0  0  0  0  0  0  0  0
    2.8246    0.3501    1.9199 O   0  0  0  0  0  0  0  0  0  0  0  0
    3.6931    0.6813   -0.1184 O   0  0  0  0  0  0  0  0  0  0  0  0
   -1.8954    2.0062    1.3736 C   0  0  0  0  0  0  0  0  0  0  0  0
   -0.1287   -3.5756   -1.5026 H   0  0  0  0  0  0  0  0  0  0  0  0
    0.5895   -1.4086    0.7868 H   0  0  0  0  0  0  0  0  0  0  0  0
    0.3069   -0.0458    1.8646 H   0  0  0  0  0  0  0  0  0  0  0  0
    0.9923    1.5382    0.0863 H   0  0  0  0  0  0  0  0  0  0  0  0
    1.4611   -0.9007   -1.4424 H   0  0  0  0  0  0  0  0  0  0  0  0
    2.0334    0.5717   -1.8749 H   0  0  0  0  0  0  0  0  0  0  0  0
    4.4949    0.7007    0.4308 H   0  0  0  0  0  0  0  0  0  0  0  0
   -1.1749    1.8412    2.1785 H   0  0  0  0  0  0  0  0  0  0  0  0
   -2.8809    2.1734    1.8139 H   0  0  0  0  0  0  0  0  0  0  0  0
   -1.6028    2.9206    0.8445 H   0  0  0  0  0  0  0  0  0  0  0  0
  2  1  1  0  0  0  0
  2  4  1  0  0  0  0
  3  2  2  0  0  0  0
  4  8  1  0  0  0  0
  5  4  2  0  0  0  0
  5  6  1  0  0  0  0
  6  7  1  0  0  0  0
  7 15  1  0  0  0  0
  8  7  2  0  0  0  0
  8  9  1  0  0  0  0
  9 18  1  0  0  0  0
 10 19  1  1  0  0  0
 10 12  1  0  0  0  0
 10  9  1  0  0  0  0
 11 10  1  0  0  0  0
 12 13  2  0  0  0  0
 14 22  1  0  0  0  0
 14 12  1  0  0  0  0
 15 24  1  0  0  0  0
 15 23  1  0  0  0  0
 16  1  1  0  0  0  0
 17  9  1  0  0  0  0
 20 11  1  0  0  0  0
 21 11  1  0  0  0  0
 25 15  1  0  0  0  0
M  END
