omegacsd_FIBREN_06.xyz
 OpenBabel12161914463D

 39 41  0  0  1  0  0  0  0  0999 V2000
   -2.8120   -1.9293   -0.7463 N   0  0  0  0  0  0  0  0  0  0  0  0
   -1.5794   -1.8934   -1.2681 C   0  0  0  0  0  0  0  0  0  0  0  0
   -0.6218   -0.9808   -1.0297 N   0  0  0  0  0  0  0  0  0  0  0  0
   -0.9046    0.0380   -0.2086 C   0  0  0  0  0  0  0  0  0  0  0  0
   -2.1743    0.1091    0.3893 C   0  0  2  0  0  0  0  0  0  0  0  0
   -3.0399   -0.9116    0.0671 C   0  0  0  0  0  0  0  0  0  0  0  0
   -4.2031   -0.6760    0.7365 O   0  0  0  0  0  0  0  0  0  0  0  0
   -3.9674    0.4921    1.4273 C   0  0  0  0  0  0  0  0  0  0  0  0
   -2.7943    1.0035    1.2630 N   0  0  0  0  0  0  0  0  0  0  0  0
   -5.0898    0.9930    2.2625 C   0  0  0  0  0  0  0  0  0  0  0  0
    0.0216    0.9890    0.0425 N   0  0  0  0  0  0  0  0  0  0  0  0
    1.3392    0.9625   -0.5572 C   0  0  1  0  0  0  0  0  0  0  0  0
    2.0067    2.3314   -0.3397 C   0  0  0  0  0  0  0  0  0  0  0  0
    1.0960    3.4373   -0.8070 C   0  0  0  0  0  0  0  0  0  0  0  0
    0.2779    4.0014   -0.1161 O   0  0  0  0  0  0  0  0  0  0  0  0
    1.2448    3.7095   -2.1162 O   0  0  0  0  0  0  0  0  0  0  0  0
    2.2128   -0.1489    0.0082 C   0  0  0  0  0  0  0  0  0  0  0  0
    2.2408   -0.3956    1.3796 C   0  0  0  0  0  0  0  0  0  0  0  0
    3.0983   -1.3553    1.9061 C   0  0  0  0  0  0  0  0  0  0  0  0
    3.9334   -2.0866    1.0650 C   0  0  0  0  0  0  0  0  0  0  0  0
    3.8969   -1.8617   -0.3078 C   0  0  0  0  0  0  0  0  0  0  0  0
    3.0374   -0.8987   -0.8307 C   0  0  0  0  0  0  0  0  0  0  0  0
   -1.2206   -2.9903   -2.2324 C   0  0  0  0  0  0  0  0  0  0  0  0
   -4.7974    1.9215    2.7546 H   0  0  0  0  0  0  0  0  0  0  0  0
   -5.9754    1.1781    1.6468 H   0  0  0  0  0  0  0  0  0  0  0  0
   -5.3593    0.2534    3.0231 H   0  0  0  0  0  0  0  0  0  0  0  0
   -0.3058    1.8405    0.4857 H   0  0  0  0  0  0  0  0  0  0  0  0
    1.2253    0.7770   -1.6338 H   0  0  0  0  0  0  0  0  0  0  0  0
    2.1865    2.4635    0.7303 H   0  0  0  0  0  0  0  0  0  0  0  0
    2.9607    2.3718   -0.8677 H   0  0  0  0  0  0  0  0  0  0  0  0
    0.5913    4.3976   -2.3274 H   0  0  0  0  0  0  0  0  0  0  0  0
    1.5837    0.1632    2.0433 H   0  0  0  0  0  0  0  0  0  0  0  0
    3.1188   -1.5285    2.9789 H   0  0  0  0  0  0  0  0  0  0  0  0
    4.6079   -2.8317    1.4802 H   0  0  0  0  0  0  0  0  0  0  0  0
    4.5394   -2.4329   -0.9735 H   0  0  0  0  0  0  0  0  0  0  0  0
    2.9974   -0.7354   -1.9071 H   0  0  0  0  0  0  0  0  0  0  0  0
   -2.0730   -3.6586   -2.3671 H   0  0  0  0  0  0  0  0  0  0  0  0
   -0.3643   -3.5579   -1.8560 H   0  0  0  0  0  0  0  0  0  0  0  0
   -0.9339   -2.5603   -3.1972 H   0  0  0  0  0  0  0  0  0  0  0  0
  1  6  2  0  0  0  0
  2  3  1  0  0  0  0
  2  1  2  0  0  0  0
  3  4  2  0  0  0  0
  4 11  1  0  0  0  0
  5  4  1  6  0  0  0
  5  9  1  0  0  0  0
  6  5  1  0  0  0  0
  6  7  1  0  0  0  0
  7  8  1  0  0  0  0
  8 10  1  0  0  0  0
  9  8  2  0  0  0  0
 10 24  1  0  0  0  0
 10 26  1  0  0  0  0
 11 27  1  0  0  0  0
 12 28  1  6  0  0  0
 12 13  1  0  0  0  0
 12 17  1  0  0  0  0
 12 11  1  0  0  0  0
 13 29  1  0  0  0  0
 14 13  1  0  0  0  0
 14 15  2  0  0  0  0
 16 14  1  0  0  0  0
 17 18  2  0  0  0  0
 18 19  1  0  0  0  0
 18 32  1  0  0  0  0
 19 33  1  0  0  0  0
 20 34  1  0  0  0  0
 20 19  2  0  0  0  0
 21 20  1  0  0  0  0
 22 21  2  0  0  0  0
 22 17  1  0  0  0  0
 23 38  1  0  0  0  0
 23  2  1  0  0  0  0
 25 10  1  0  0  0  0
 30 13  1  0  0  0  0
 31 16  1  0  0  0  0
 35 21  1  0  0  0  0
 36 22  1  0  0  0  0
 37 23  1  0  0  0  0
 39 23  1  0  0  0  0
M  RAD  1   5   2
M  END
