omegapdb_2byh_16.xyz
 OpenBabel12161914463D

 40 42  0  0  0  0  0  0  0  0999 V2000
    5.0569    3.0494    2.6603 O   0  0  0  0  0  0  0  0  0  0  0  0
    5.2852    2.1992    1.8211 C   0  0  0  0  0  0  0  0  0  0  0  0
    6.6807    2.0083    1.2657 C   0  0  0  0  0  0  0  0  0  0  0  0
    4.1871    1.3193    1.3168 C   0  0  0  0  0  0  0  0  0  0  0  0
    4.3833    0.3567    0.3255 C   0  0  0  0  0  0  0  0  0  0  0  0
    3.3300   -0.4345   -0.1048 C   0  0  0  0  0  0  0  0  0  0  0  0
    2.0537   -0.2774    0.4474 C   0  0  0  0  0  0  0  0  0  0  0  0
    1.8446    0.6856    1.4397 C   0  0  0  0  0  0  0  0  0  0  0  0
    2.9083    1.4679    1.8592 C   0  0  0  0  0  0  0  0  0  0  0  0
    1.0279   -1.1186   -0.0204 N   0  0  0  0  0  0  0  0  0  0  0  0
   -0.3221   -1.0327    0.2230 C   0  0  0  0  0  0  0  0  0  0  0  0
   -0.8227   -0.1984    0.9606 O   0  0  0  0  0  0  0  0  0  0  0  0
   -1.1269   -2.0478   -0.5042 C   0  0  0  0  0  0  0  0  0  0  0  0
   -0.7316   -3.3452   -0.9167 C   0  0  0  0  0  0  0  0  0  0  0  0
   -1.7399   -4.0344   -1.4210 N   0  0  0  0  0  0  0  0  0  0  0  0
   -2.7839   -3.1985   -1.3422 N   0  0  0  0  0  0  0  0  0  0  0  0
   -2.4849   -1.9774   -0.8345 C   0  0  0  0  0  0  0  0  0  0  0  0
   -3.4813   -0.9113   -0.7289 C   0  0  0  0  0  0  0  0  0  0  0  0
   -4.7974   -1.1648   -0.3217 C   0  0  0  0  0  0  0  0  0  0  0  0
   -5.7147   -0.1422   -0.1846 C   0  0  0  0  0  0  0  0  0  0  0  0
   -7.3321   -0.4692    0.3448 Cl  0  0  0  0  0  0  0  0  0  0  0  0
   -5.3398    1.1786   -0.4711 C   0  0  0  0  0  0  0  0  0  0  0  0
   -6.2635    2.1523   -0.3165 O   0  0  0  0  0  0  0  0  0  0  0  0
   -4.0449    1.4391   -0.9069 C   0  0  0  0  0  0  0  0  0  0  0  0
   -3.1290    0.4012   -1.0499 C   0  0  0  0  0  0  0  0  0  0  0  0
   -1.8908    0.6122   -1.5788 O   0  0  0  0  0  0  0  0  0  0  0  0
    7.0324    0.9846    1.4349 H   0  0  0  0  0  0  0  0  0  0  0  0
    7.3520    2.7125    1.7593 H   0  0  0  0  0  0  0  0  0  0  0  0
    6.6941    2.1860    0.1846 H   0  0  0  0  0  0  0  0  0  0  0  0
    5.3647    0.2182   -0.1203 H   0  0  0  0  0  0  0  0  0  0  0  0
    3.5031   -1.1763   -0.8805 H   0  0  0  0  0  0  0  0  0  0  0  0
    0.8582    0.8130    1.8656 H   0  0  0  0  0  0  0  0  0  0  0  0
    2.7559    2.2216    2.6265 H   0  0  0  0  0  0  0  0  0  0  0  0
    1.3111   -1.8005   -0.7082 H   0  0  0  0  0  0  0  0  0  0  0  0
    0.2324   -3.8317   -0.8269 H   0  0  0  0  0  0  0  0  0  0  0  0
   -3.6679   -3.4861   -1.7388 H   0  0  0  0  0  0  0  0  0  0  0  0
   -5.1056   -2.1797   -0.0810 H   0  0  0  0  0  0  0  0  0  0  0  0
   -5.8577    3.0027   -0.5303 H   0  0  0  0  0  0  0  0  0  0  0  0
   -3.7497    2.4593   -1.1547 H   0  0  0  0  0  0  0  0  0  0  0  0
   -1.4758    1.3592   -1.1261 H   0  0  0  0  0  0  0  0  0  0  0  0
  2  1  2  0  0  0  0
  3 27  1  0  0  0  0
  3 28  1  0  0  0  0
  3  2  1  0  0  0  0
  4  2  1  0  0  0  0
  4  9  2  0  0  0  0
  5  4  1  0  0  0  0
  6  5  2  0  0  0  0
  6  7  1  0  0  0  0
  7  8  2  0  0  0  0
  8  9  1  0  0  0  0
  8 32  1  0  0  0  0
  9 33  1  0  0  0  0
 10 11  1  0  0  0  0
 10  7  1  0  0  0  0
 11 12  2  0  0  0  0
 13 11  1  0  0  0  0
 14 35  1  0  0  0  0
 14 13  1  0  0  0  0
 15 16  1  0  0  0  0
 15 14  2  0  0  0  0
 16 17  1  0  0  0  0
 17 18  1  0  0  0  0
 17 13  2  0  0  0  0
 18 19  2  0  0  0  0
 19 20  1  0  0  0  0
 19 37  1  0  0  0  0
 20 21  1  0  0  0  0
 22 23  1  0  0  0  0
 22 20  2  0  0  0  0
 24 22  1  0  0  0  0
 25 24  2  0  0  0  0
 25 18  1  0  0  0  0
 26 40  1  0  0  0  0
 26 25  1  0  0  0  0
 29  3  1  0  0  0  0
 30  5  1  0  0  0  0
 31  6  1  0  0  0  0
 34 10  1  0  0  0  0
 36 16  1  0  0  0  0
 38 23  1  0  0  0  0
 39 24  1  0  0  0  0
M  END
