omegapdb_2byh_04.xyz
 OpenBabel12161914463D

 40 42  0  0  0  0  0  0  0  0999 V2000
    4.0481    3.6366    2.4390 O   0  0  0  0  0  0  0  0  0  0  0  0
    4.3651    2.5089    2.1112 C   0  0  0  0  0  0  0  0  0  0  0  0
    5.7918    2.0267    2.2559 C   0  0  0  0  0  0  0  0  0  0  0  0
    3.3452    1.5671    1.5610 C   0  0  0  0  0  0  0  0  0  0  0  0
    2.0193    1.9989    1.4780 C   0  0  0  0  0  0  0  0  0  0  0  0
    1.0399    1.1568    0.9832 C   0  0  0  0  0  0  0  0  0  0  0  0
    1.3651   -0.1337    0.5512 C   0  0  0  0  0  0  0  0  0  0  0  0
    2.6880   -0.5716    0.6191 C   0  0  0  0  0  0  0  0  0  0  0  0
    3.6596    0.2797    1.1264 C   0  0  0  0  0  0  0  0  0  0  0  0
    0.3202   -0.9434    0.0720 N   0  0  0  0  0  0  0  0  0  0  0  0
    0.3961   -2.1461   -0.5847 C   0  0  0  0  0  0  0  0  0  0  0  0
    1.4434   -2.7229   -0.8407 O   0  0  0  0  0  0  0  0  0  0  0  0
   -0.9082   -2.7405   -0.9448 C   0  0  0  0  0  0  0  0  0  0  0  0
   -1.0905   -4.1118   -1.2362 C   0  0  0  0  0  0  0  0  0  0  0  0
   -2.3614   -4.4192   -1.4136 N   0  0  0  0  0  0  0  0  0  0  0  0
   -3.0094   -3.2543   -1.2382 N   0  0  0  0  0  0  0  0  0  0  0  0
   -2.1971   -2.1993   -0.9913 C   0  0  0  0  0  0  0  0  0  0  0  0
   -2.6914   -0.8131   -0.9523 C   0  0  0  0  0  0  0  0  0  0  0  0
   -2.0174    0.1957   -1.6437 C   0  0  0  0  0  0  0  0  0  0  0  0
   -2.5060    1.4915   -1.6853 C   0  0  0  0  0  0  0  0  0  0  0  0
   -1.6348    2.7430   -2.5339 Cl  0  0  0  0  0  0  0  0  0  0  0  0
   -3.7013    1.8232   -1.0375 C   0  0  0  0  0  0  0  0  0  0  0  0
   -4.2287    3.0644   -1.0391 O   0  0  0  0  0  0  0  0  0  0  0  0
   -4.3899    0.8238   -0.3584 C   0  0  0  0  0  0  0  0  0  0  0  0
   -3.8900   -0.4636   -0.3002 C   0  0  0  0  0  0  0  0  0  0  0  0
   -4.6381   -1.3785    0.3858 O   0  0  0  0  0  0  0  0  0  0  0  0
    6.3927    2.8386    2.6668 H   0  0  0  0  0  0  0  0  0  0  0  0
    6.2009    1.7221    1.2865 H   0  0  0  0  0  0  0  0  0  0  0  0
    5.8413    1.1588    2.9229 H   0  0  0  0  0  0  0  0  0  0  0  0
    1.7764    3.0031    1.8106 H   0  0  0  0  0  0  0  0  0  0  0  0
    0.0106    1.5030    0.9258 H   0  0  0  0  0  0  0  0  0  0  0  0
    2.9420   -1.5640    0.2748 H   0  0  0  0  0  0  0  0  0  0  0  0
    4.6849   -0.0787    1.1758 H   0  0  0  0  0  0  0  0  0  0  0  0
   -0.6122   -0.5962    0.2451 H   0  0  0  0  0  0  0  0  0  0  0  0
   -0.3189   -4.8670   -1.3116 H   0  0  0  0  0  0  0  0  0  0  0  0
   -4.0111   -3.2264   -1.3677 H   0  0  0  0  0  0  0  0  0  0  0  0
   -1.0964   -0.0247   -2.1703 H   0  0  0  0  0  0  0  0  0  0  0  0
   -3.6492    3.6556   -1.5414 H   0  0  0  0  0  0  0  0  0  0  0  0
   -5.3269    1.0608    0.1354 H   0  0  0  0  0  0  0  0  0  0  0  0
   -4.0516   -2.0037    0.8304 H   0  0  0  0  0  0  0  0  0  0  0  0
  2  3  1  0  0  0  0
  2  1  2  0  0  0  0
  3 27  1  0  0  0  0
  3 29  1  0  0  0  0
  4  2  1  0  0  0  0
  5  4  1  0  0  0  0
  5 30  1  0  0  0  0
  6  5  2  0  0  0  0
  7  8  2  0  0  0  0
  7  6  1  0  0  0  0
  8  9  1  0  0  0  0
  9 33  1  0  0  0  0
  9  4  2  0  0  0  0
 10 34  1  0  0  0  0
 10  7  1  0  0  0  0
 11 10  1  0  0  0  0
 12 11  2  0  0  0  0
 13 11  1  0  0  0  0
 14 13  1  0  0  0  0
 15 16  1  0  0  0  0
 15 14  2  0  0  0  0
 16 17  1  0  0  0  0
 17 18  1  0  0  0  0
 17 13  2  0  0  0  0
 18 25  2  0  0  0  0
 19 18  1  0  0  0  0
 20 19  2  0  0  0  0
 20 22  1  0  0  0  0
 21 20  1  0  0  0  0
 22 24  2  0  0  0  0
 23 22  1  0  0  0  0
 24 25  1  0  0  0  0
 24 39  1  0  0  0  0
 25 26  1  0  0  0  0
 26 40  1  0  0  0  0
 28  3  1  0  0  0  0
 31  6  1  0  0  0  0
 32  8  1  0  0  0  0
 35 14  1  0  0  0  0
 36 16  1  0  0  0  0
 37 19  1  0  0  0  0
 38 23  1  0  0  0  0
M  END
