omegapdb_1qxw_09.xyz
 OpenBabel12161914463D

 36 36  0  0  1  0  0  0  0  0999 V2000
    4.2382    1.4202    1.0088 C   0  0  0  0  0  0  0  0  0  0  0  0
    2.7841    1.7896    0.9463 C   0  0  0  0  0  0  0  0  0  0  0  0
    3.3364    0.7331    0.0281 C   0  0  0  0  0  0  0  0  0  0  0  0
    3.0027   -0.6515    0.2896 N   0  0  0  0  0  0  0  0  0  0  0  0
    1.9319   -1.1771   -0.5583 C   0  0  0  0  0  0  0  0  0  0  0  0
    0.5841   -0.6169   -0.0850 C   0  0  0  0  0  0  0  0  0  0  0  0
   -0.5743   -1.5474   -0.4944 C   0  0  1  0  0  0  0  0  0  0  0  0
   -0.3682   -2.8210    0.1906 N   0  0  0  0  0  0  0  0  0  0  0  0
   -1.9356   -0.8912   -0.1960 C   0  0  0  0  0  0  0  0  0  0  0  0
   -2.5095   -0.0191   -1.3178 C   0  0  0  0  0  0  0  0  0  0  0  0
   -3.8666    0.5997   -0.9662 C   0  0  0  0  0  0  0  0  0  0  0  0
   -3.7977    1.6614    0.1327 C   0  0  0  0  0  0  0  0  0  0  0  0
    0.3918    0.6655   -0.6540 O   0  0  0  0  0  0  0  0  0  0  0  0
    0.6046   -0.4974    1.3288 O   0  0  0  0  0  0  0  0  0  0  0  0
    4.9697    2.1271    0.6272 H   0  0  0  0  0  0  0  0  0  0  0  0
    4.5765    0.8376    1.8608 H   0  0  0  0  0  0  0  0  0  0  0  0
    2.5229    2.7450    0.4977 H   0  0  0  0  0  0  0  0  0  0  0  0
    2.1355    1.4660    1.7564 H   0  0  0  0  0  0  0  0  0  0  0  0
    3.4420    1.0131   -1.0225 H   0  0  0  0  0  0  0  0  0  0  0  0
    3.8371   -1.2166    0.1641 H   0  0  0  0  0  0  0  0  0  0  0  0
    2.0681   -0.9273   -1.6171 H   0  0  0  0  0  0  0  0  0  0  0  0
    1.9162   -2.2653   -0.4482 H   0  0  0  0  0  0  0  0  0  0  0  0
   -0.4891   -1.7254   -1.5752 H   0  0  0  0  0  0  0  0  0  0  0  0
   -0.3785   -2.6438    1.1931 H   0  0  0  0  0  0  0  0  0  0  0  0
   -1.1389   -3.4514   -0.0124 H   0  0  0  0  0  0  0  0  0  0  0  0
   -1.8540   -0.3260    0.7406 H   0  0  0  0  0  0  0  0  0  0  0  0
   -2.6544   -1.7020    0.0032 H   0  0  0  0  0  0  0  0  0  0  0  0
   -1.7968    0.7724   -1.5745 H   0  0  0  0  0  0  0  0  0  0  0  0
   -2.6241   -0.6403   -2.2173 H   0  0  0  0  0  0  0  0  0  0  0  0
   -4.2943    1.0511   -1.8708 H   0  0  0  0  0  0  0  0  0  0  0  0
   -4.5621   -0.1968   -0.6659 H   0  0  0  0  0  0  0  0  0  0  0  0
   -4.7844    2.0955    0.3256 H   0  0  0  0  0  0  0  0  0  0  0  0
   -3.1212    2.4759   -0.1528 H   0  0  0  0  0  0  0  0  0  0  0  0
   -3.4323    1.2472    1.0792 H   0  0  0  0  0  0  0  0  0  0  0  0
    0.2958    1.2585    0.1019 H   0  0  0  0  0  0  0  0  0  0  0  0
    1.5445   -0.6422    1.5611 H   0  0  0  0  0  0  0  0  0  0  0  0
  1 16  1  0  0  0  0
  2  1  1  0  0  0  0
  2 18  1  0  0  0  0
  3  4  1  0  0  0  0
  3  2  1  0  0  0  0
  3  1  1  0  0  0  0
  5 22  1  0  0  0  0
  5  6  1  0  0  0  0
  5  4  1  0  0  0  0
  6 14  1  0  0  0  0
  7 23  1  6  0  0  0
  7  9  1  0  0  0  0
  7  6  1  0  0  0  0
  7  8  1  0  0  0  0
  8 24  1  0  0  0  0
  9 27  1  0  0  0  0
  9 26  1  0  0  0  0
 10 11  1  0  0  0  0
 10  9  1  0  0  0  0
 11 31  1  0  0  0  0
 11 12  1  0  0  0  0
 12 32  1  0  0  0  0
 12 34  1  0  0  0  0
 13  6  1  0  0  0  0
 13 35  1  0  0  0  0
 14 36  1  0  0  0  0
 15  1  1  0  0  0  0
 17  2  1  0  0  0  0
 19  3  1  0  0  0  0
 20  4  1  0  0  0  0
 21  5  1  0  0  0  0
 25  8  1  0  0  0  0
 28 10  1  0  0  0  0
 29 10  1  0  0  0  0
 30 11  1  0  0  0  0
 33 12  1  0  0  0  0
M  END
