omegapdb_2byh_09.xyz
 OpenBabel12161914463D

 40 42  0  0  0  0  0  0  0  0999 V2000
    6.4214    0.6378    2.9411 O   0  0  0  0  0  0  0  0  0  0  0  0
    5.6108    1.3349    2.3607 C   0  0  0  0  0  0  0  0  0  0  0  0
    5.8044    2.8331    2.2662 C   0  0  0  0  0  0  0  0  0  0  0  0
    4.4049    0.7221    1.7255 C   0  0  0  0  0  0  0  0  0  0  0  0
    3.4330    1.4702    1.0613 C   0  0  0  0  0  0  0  0  0  0  0  0
    2.3270    0.8710    0.4724 C   0  0  0  0  0  0  0  0  0  0  0  0
    2.1804   -0.5164    0.5503 C   0  0  0  0  0  0  0  0  0  0  0  0
    3.1497   -1.2760    1.2194 C   0  0  0  0  0  0  0  0  0  0  0  0
    4.2470   -0.6653    1.7979 C   0  0  0  0  0  0  0  0  0  0  0  0
    1.0939   -1.2099   -0.0108 N   0  0  0  0  0  0  0  0  0  0  0  0
    0.0403   -0.7191   -0.7448 C   0  0  0  0  0  0  0  0  0  0  0  0
   -0.0571    0.4570   -1.0628 O   0  0  0  0  0  0  0  0  0  0  0  0
   -0.9505   -1.7671   -1.1176 C   0  0  0  0  0  0  0  0  0  0  0  0
   -0.6590   -3.1153   -1.4584 C   0  0  0  0  0  0  0  0  0  0  0  0
   -1.7483   -3.8145   -1.7201 N   0  0  0  0  0  0  0  0  0  0  0  0
   -2.7490   -2.9444   -1.5165 N   0  0  0  0  0  0  0  0  0  0  0  0
   -2.3441   -1.6918   -1.1844 C   0  0  0  0  0  0  0  0  0  0  0  0
   -3.2948   -0.5846   -1.0059 C   0  0  0  0  0  0  0  0  0  0  0  0
   -3.0124    0.6668   -1.5515 C   0  0  0  0  0  0  0  0  0  0  0  0
   -3.9402    1.6895   -1.5123 C   0  0  0  0  0  0  0  0  0  0  0  0
   -3.5710    3.2442   -2.2132 Cl  0  0  0  0  0  0  0  0  0  0  0  0
   -5.1936    1.4995   -0.9196 C   0  0  0  0  0  0  0  0  0  0  0  0
   -6.1413    2.4554   -0.8651 O   0  0  0  0  0  0  0  0  0  0  0  0
   -5.4823    0.2629   -0.3533 C   0  0  0  0  0  0  0  0  0  0  0  0
   -4.5463   -0.7552   -0.3783 C   0  0  0  0  0  0  0  0  0  0  0  0
   -4.9266   -1.9354    0.1925 O   0  0  0  0  0  0  0  0  0  0  0  0
    4.9761    3.3629    2.7497 H   0  0  0  0  0  0  0  0  0  0  0  0
    6.7414    3.0921    2.7616 H   0  0  0  0  0  0  0  0  0  0  0  0
    5.8407    3.1566    1.2200 H   0  0  0  0  0  0  0  0  0  0  0  0
    3.5304    2.5511    0.9934 H   0  0  0  0  0  0  0  0  0  0  0  0
    1.5865    1.4647   -0.0430 H   0  0  0  0  0  0  0  0  0  0  0  0
    3.0443   -2.3571    1.2792 H   0  0  0  0  0  0  0  0  0  0  0  0
    5.0009   -1.2497    2.3163 H   0  0  0  0  0  0  0  0  0  0  0  0
    1.0472   -2.1895    0.2256 H   0  0  0  0  0  0  0  0  0  0  0  0
    0.3082   -3.5889   -1.5766 H   0  0  0  0  0  0  0  0  0  0  0  0
   -3.7004   -3.2404   -1.6912 H   0  0  0  0  0  0  0  0  0  0  0  0
   -2.0453    0.8374   -2.0022 H   0  0  0  0  0  0  0  0  0  0  0  0
   -5.8069    3.2616   -1.2845 H   0  0  0  0  0  0  0  0  0  0  0  0
   -6.4475    0.1000    0.1154 H   0  0  0  0  0  0  0  0  0  0  0  0
   -4.1716   -2.3501    0.6291 H   0  0  0  0  0  0  0  0  0  0  0  0
  2  1  2  0  0  0  0
  3  2  1  0  0  0  0
  3 27  1  0  0  0  0
  3 28  1  0  0  0  0
  4  9  1  0  0  0  0
  4  2  1  0  0  0  0
  5  4  2  0  0  0  0
  6  7  2  0  0  0  0
  6  5  1  0  0  0  0
  7  8  1  0  0  0  0
  8 32  1  0  0  0  0
  8  9  2  0  0  0  0
  9 33  1  0  0  0  0
 10 34  1  0  0  0  0
 10  7  1  0  0  0  0
 11 10  1  0  0  0  0
 12 11  2  0  0  0  0
 13 11  1  0  0  0  0
 14 13  1  0  0  0  0
 15 16  1  0  0  0  0
 15 14  2  0  0  0  0
 16 17  1  0  0  0  0
 17 13  2  0  0  0  0
 17 18  1  0  0  0  0
 18 25  2  0  0  0  0
 19 20  2  0  0  0  0
 19 18  1  0  0  0  0
 20 22  1  0  0  0  0
 21 20  1  0  0  0  0
 22 23  1  0  0  0  0
 22 24  2  0  0  0  0
 24 39  1  0  0  0  0
 25 24  1  0  0  0  0
 25 26  1  0  0  0  0
 26 40  1  0  0  0  0
 29  3  1  0  0  0  0
 30  5  1  0  0  0  0
 31  6  1  0  0  0  0
 35 14  1  0  0  0  0
 36 16  1  0  0  0  0
 37 19  1  0  0  0  0
 38 23  1  0  0  0  0
M  END
