omegapdb_1z1r_23.xyz
 OpenBabel12161914463D

 66 68  0  0  1  0  0  0  0  0999 V2000
    0.6374   -0.3397    0.5173 C   0  0  2  0  0  0  0  0  0  0  0  0
    0.7507   -1.8515    0.8756 C   0  0  0  0  0  0  0  0  0  0  0  0
   -0.4940   -2.6512    0.5538 C   0  0  0  0  0  0  0  0  0  0  0  0
   -1.4409   -2.9077    1.5517 C   0  0  0  0  0  0  0  0  0  0  0  0
   -2.7350   -3.2847    1.2245 C   0  0  0  0  0  0  0  0  0  0  0  0
   -3.0979   -3.4214   -0.1189 C   0  0  0  0  0  0  0  0  0  0  0  0
   -2.1156   -3.3337   -1.1078 C   0  0  0  0  0  0  0  0  0  0  0  0
   -0.8199   -2.9666   -0.7674 C   0  0  0  0  0  0  0  0  0  0  0  0
   -4.4094   -3.6878   -0.3843 O   0  0  0  0  0  0  0  0  0  0  0  0
   -5.0256   -3.0837   -1.5138 C   0  0  0  0  0  0  0  0  0  0  0  0
   -5.5993   -1.6883   -1.2653 C   0  0  0  0  0  0  0  0  0  0  0  0
   -4.5890   -0.5908   -0.9218 C   0  0  0  0  0  0  0  0  0  0  0  0
   -4.4071   -0.4030    0.5789 C   0  0  0  0  0  0  0  0  0  0  0  0
   -5.0876   -1.0060    1.3925 O   0  0  0  0  0  0  0  0  0  0  0  0
   -3.4392    0.4737    0.9999 N   0  0  0  0  0  0  0  0  0  0  0  0
   -2.7322    1.4780    0.2305 C   0  0  2  0  0  0  0  0  0  0  0  0
   -1.1940    1.3246    0.3271 C   0  0  0  0  0  0  0  0  0  0  0  0
   -0.4587    2.3030    0.2742 O   0  0  0  0  0  0  0  0  0  0  0  0
   -0.7612    0.0509    0.4234 N   0  0  0  0  0  0  0  0  0  0  0  0
   -3.1246    2.9020    0.6369 C   0  0  0  0  0  0  0  0  0  0  0  0
   -2.8217    3.2075    2.0986 C   0  0  0  0  0  0  0  0  0  0  0  0
   -2.8873    2.3659    2.9850 O   0  0  0  0  0  0  0  0  0  0  0  0
   -2.5212    4.5044    2.3633 N   0  0  0  0  0  0  0  0  0  0  0  0
    1.4314    0.0169   -0.7536 C   0  0  2  0  0  0  0  0  0  0  0  0
    1.1269   -0.9003   -1.7833 O   0  0  0  0  0  0  0  0  0  0  0  0
    2.9395    0.0172   -0.4873 C   0  0  0  0  0  0  0  0  0  0  0  0
    3.6667    0.2633   -1.7399 N   0  0  0  0  0  0  0  0  0  0  0  0
    5.2992   -0.0798   -1.7717 S   0  0  0  0  0  0  0  0  0  0  0  0
    5.7593    0.3076   -3.0925 O   0  0  0  0  0  0  0  0  0  0  0  0
    5.4390   -1.4339   -1.2673 O   0  0  0  0  0  0  0  0  0  0  0  0
    6.0434    1.0187   -0.5907 C   0  0  0  0  0  0  0  0  0  0  0  0
    6.6103    2.2067   -1.0407 C   0  0  0  0  0  0  0  0  0  0  0  0
    7.1696    3.0801   -0.1146 C   0  0  0  0  0  0  0  0  0  0  0  0
    7.1642    2.7626    1.2416 C   0  0  0  0  0  0  0  0  0  0  0  0
    6.6044    1.5637    1.6773 C   0  0  0  0  0  0  0  0  0  0  0  0
    6.0452    0.6809    0.7607 C   0  0  0  0  0  0  0  0  0  0  0  0
    1.0859    0.2551    1.3242 H   0  0  0  0  0  0  0  0  0  0  0  0
    0.9549   -1.9385    1.9486 H   0  0  0  0  0  0  0  0  0  0  0  0
    1.6074   -2.2886    0.3504 H   0  0  0  0  0  0  0  0  0  0  0  0
   -1.1699   -2.7463    2.5949 H   0  0  0  0  0  0  0  0  0  0  0  0
   -3.5039   -3.3995    1.9821 H   0  0  0  0  0  0  0  0  0  0  0  0
   -2.3528   -3.5462   -2.1466 H   0  0  0  0  0  0  0  0  0  0  0  0
   -0.0753   -2.8293   -1.5444 H   0  0  0  0  0  0  0  0  0  0  0  0
   -4.3291   -3.0505   -2.3612 H   0  0  0  0  0  0  0  0  0  0  0  0
   -5.8422   -3.7620   -1.7783 H   0  0  0  0  0  0  0  0  0  0  0  0
   -6.1231   -1.4097   -2.1879 H   0  0  0  0  0  0  0  0  0  0  0  0
   -6.3435   -1.7384   -0.4643 H   0  0  0  0  0  0  0  0  0  0  0  0
   -3.6162   -0.7772   -1.3966 H   0  0  0  0  0  0  0  0  0  0  0  0
   -4.9452    0.3664   -1.3266 H   0  0  0  0  0  0  0  0  0  0  0  0
   -3.4339    0.6548    2.0003 H   0  0  0  0  0  0  0  0  0  0  0  0
   -2.9821    1.3492   -0.8310 H   0  0  0  0  0  0  0  0  0  0  0  0
   -1.4682   -0.6633    0.5274 H   0  0  0  0  0  0  0  0  0  0  0  0
   -4.2033    3.0248    0.4888 H   0  0  0  0  0  0  0  0  0  0  0  0
   -2.6059    3.6118   -0.0116 H   0  0  0  0  0  0  0  0  0  0  0  0
   -2.3274    5.1620    1.6254 H   0  0  0  0  0  0  0  0  0  0  0  0
   -2.2188    4.7301    3.2991 H   0  0  0  0  0  0  0  0  0  0  0  0
    1.1296    1.0317   -1.0515 H   0  0  0  0  0  0  0  0  0  0  0  0
    1.8513   -0.8317   -2.4251 H   0  0  0  0  0  0  0  0  0  0  0  0
    3.2523   -0.9664   -0.1218 H   0  0  0  0  0  0  0  0  0  0  0  0
    3.1892    0.7669    0.2754 H   0  0  0  0  0  0  0  0  0  0  0  0
    3.4866    1.1641   -2.1768 H   0  0  0  0  0  0  0  0  0  0  0  0
    6.6142    2.4266   -2.1052 H   0  0  0  0  0  0  0  0  0  0  0  0
    7.6147    4.0105   -0.4550 H   0  0  0  0  0  0  0  0  0  0  0  0
    7.6025    3.4494    1.9608 H   0  0  0  0  0  0  0  0  0  0  0  0
    6.6056    1.3133    2.7338 H   0  0  0  0  0  0  0  0  0  0  0  0
    5.6206   -0.2667    1.0856 H   0  0  0  0  0  0  0  0  0  0  0  0
  1  2  1  0  0  0  0
  1 37  1  1  0  0  0
  2 38  1  0  0  0  0
  3  2  1  0  0  0  0
  3  4  2  0  0  0  0
  4 40  1  0  0  0  0
  5  4  1  0  0  0  0
  5 41  1  0  0  0  0
  6  5  2  0  0  0  0
  7  8  2  0  0  0  0
  7  6  1  0  0  0  0
  8  3  1  0  0  0  0
  9  6  1  0  0  0  0
 10 11  1  0  0  0  0
 10  9  1  0  0  0  0
 11 12  1  0  0  0  0
 11 47  1  0  0  0  0
 12 13  1  0  0  0  0
 13 15  1  0  0  0  0
 13 14  2  0  0  0  0
 15 50  1  0  0  0  0
 16 51  1  6  0  0  0
 16 17  1  0  0  0  0
 16 20  1  0  0  0  0
 16 15  1  0  0  0  0
 17 19  1  0  0  0  0
 18 17  2  0  0  0  0
 19  1  1  0  0  0  0
 19 52  1  0  0  0  0
 20 21  1  0  0  0  0
 21 23  1  0  0  0  0
 21 22  2  0  0  0  0
 23 56  1  0  0  0  0
 24 57  1  6  0  0  0
 24 26  1  0  0  0  0
 24  1  1  0  0  0  0
 25 24  1  0  0  0  0
 26 59  1  0  0  0  0
 26 60  1  0  0  0  0
 27 26  1  0  0  0  0
 28 27  1  0  0  0  0
 28 30  2  0  0  0  0
 28 31  1  0  0  0  0
 29 28  2  0  0  0  0
 31 36  1  0  0  0  0
 32 31  2  0  0  0  0
 32 33  1  0  0  0  0
 33 34  2  0  0  0  0
 34 35  1  0  0  0  0
 34 64  1  0  0  0  0
 35 65  1  0  0  0  0
 36 66  1  0  0  0  0
 36 35  2  0  0  0  0
 39  2  1  0  0  0  0
 42  7  1  0  0  0  0
 43  8  1  0  0  0  0
 44 10  1  0  0  0  0
 45 10  1  0  0  0  0
 46 11  1  0  0  0  0
 48 12  1  0  0  0  0
 49 12  1  0  0  0  0
 53 20  1  0  0  0  0
 54 20  1  0  0  0  0
 55 23  1  0  0  0  0
 58 25  1  0  0  0  0
 61 27  1  0  0  0  0
 62 32  1  0  0  0  0
 63 33  1  0  0  0  0
M  END
