omegapdb_1m5f_00.xyz
 OpenBabel12161914463D

 25 25  0  0  1  0  0  0  0  0999 V2000
   -1.7871   -3.0087   -1.9427 O   0  0  0  0  0  0  0  0  0  0  0  0
   -0.9332   -2.2912   -1.2137 C   0  0  0  0  0  0  0  0  0  0  0  0
    0.2177   -2.6247   -1.0090 O   0  0  0  0  0  0  0  0  0  0  0  0
   -1.5315   -1.0436   -0.6833 C   0  0  0  0  0  0  0  0  0  0  0  0
   -2.7113   -0.6390   -1.0871 N   0  0  0  0  0  0  0  0  0  0  0  0
   -2.9307    0.5406   -0.4275 O   0  0  0  0  0  0  0  0  0  0  0  0
   -1.8872    0.8299    0.3700 C   0  0  0  0  0  0  0  0  0  0  0  0
   -0.9392   -0.1436    0.2551 C   0  0  0  0  0  0  0  0  0  0  0  0
    0.3987   -0.1857    0.9214 C   0  0  0  0  0  0  0  0  0  0  0  0
    1.4793    0.5680    0.1313 C   0  0  2  0  0  0  0  0  0  0  0  0
    1.8509   -0.0449   -1.1422 N   0  0  0  0  0  0  0  0  0  0  0  0
    2.7394    0.7490    0.9963 C   0  0  0  0  0  0  0  0  0  0  0  0
    2.6879    1.1103    2.1461 O   0  0  0  0  0  0  0  0  0  0  0  0
    3.8750    0.4926    0.3514 O   0  0  0  0  0  0  0  0  0  0  0  0
   -1.9735    2.0878    1.1584 C   0  0  0  0  0  0  0  0  0  0  0  0
   -1.3033   -3.7986   -2.2401 H   0  0  0  0  0  0  0  0  0  0  0  0
    0.3477    0.2659    1.9173 H   0  0  0  0  0  0  0  0  0  0  0  0
    0.7094   -1.2251    1.0635 H   0  0  0  0  0  0  0  0  0  0  0  0
    1.1142    1.5854   -0.0645 H   0  0  0  0  0  0  0  0  0  0  0  0
    1.6402   -1.0411   -1.1164 H   0  0  0  0  0  0  0  0  0  0  0  0
    1.3305    0.3485   -1.9183 H   0  0  0  0  0  0  0  0  0  0  0  0
    3.5866    0.2180   -0.5542 H   0  0  0  0  0  0  0  0  0  0  0  0
   -1.1817    2.1239    1.9102 H   0  0  0  0  0  0  0  0  0  0  0  0
   -2.9383    2.1621    1.6659 H   0  0  0  0  0  0  0  0  0  0  0  0
   -1.8607    2.9644    0.5120 H   0  0  0  0  0  0  0  0  0  0  0  0
  1  2  1  0  0  0  0
  2  3  2  0  0  0  0
  2  4  1  0  0  0  0
  4  8  1  0  0  0  0
  5  4  2  0  0  0  0
  5  6  1  0  0  0  0
  6  7  1  0  0  0  0
  7 15  1  0  0  0  0
  8  7  2  0  0  0  0
  8  9  1  0  0  0  0
  9 18  1  0  0  0  0
  9 17  1  0  0  0  0
 10 19  1  6  0  0  0
 10  9  1  0  0  0  0
 10 12  1  0  0  0  0
 11 20  1  0  0  0  0
 11 10  1  0  0  0  0
 12 13  2  0  0  0  0
 14 12  1  0  0  0  0
 15 24  1  0  0  0  0
 15 23  1  0  0  0  0
 16  1  1  0  0  0  0
 21 11  1  0  0  0  0
 22 14  1  0  0  0  0
 25 15  1  0  0  0  0
M  END
