omegapdb_2byh_03.xyz
 OpenBabel12161914463D

 40 42  0  0  0  0  0  0  0  0999 V2000
    6.3682    0.5975    3.2580 O   0  0  0  0  0  0  0  0  0  0  0  0
    5.6478    1.2743    2.5489 C   0  0  0  0  0  0  0  0  0  0  0  0
    5.9748    2.7259    2.2685 C   0  0  0  0  0  0  0  0  0  0  0  0
    4.4197    0.6840    1.9358 C   0  0  0  0  0  0  0  0  0  0  0  0
    4.1206   -0.6551    2.2026 C   0  0  0  0  0  0  0  0  0  0  0  0
    2.9939   -1.2425    1.6571 C   0  0  0  0  0  0  0  0  0  0  0  0
    2.1388   -0.5068    0.8238 C   0  0  0  0  0  0  0  0  0  0  0  0
    2.4277    0.8329    0.5508 C   0  0  0  0  0  0  0  0  0  0  0  0
    3.5617    1.4086    1.1086 C   0  0  0  0  0  0  0  0  0  0  0  0
    1.0198   -1.1753    0.2945 N   0  0  0  0  0  0  0  0  0  0  0  0
    0.0789   -0.7188   -0.5973 C   0  0  0  0  0  0  0  0  0  0  0  0
    0.0943    0.4220   -1.0377 O   0  0  0  0  0  0  0  0  0  0  0  0
   -0.9243   -1.7561   -0.9767 C   0  0  0  0  0  0  0  0  0  0  0  0
   -0.5990   -3.1220   -1.1716 C   0  0  0  0  0  0  0  0  0  0  0  0
   -1.6558   -3.8559   -1.4521 N   0  0  0  0  0  0  0  0  0  0  0  0
   -2.6736   -2.9929   -1.4297 N   0  0  0  0  0  0  0  0  0  0  0  0
   -2.3142   -1.7068   -1.1818 C   0  0  0  0  0  0  0  0  0  0  0  0
   -3.2820   -0.5951   -1.2080 C   0  0  0  0  0  0  0  0  0  0  0  0
   -2.8568    0.7076   -1.4758 C   0  0  0  0  0  0  0  0  0  0  0  0
   -3.7471    1.7641   -1.5102 C   0  0  0  0  0  0  0  0  0  0  0  0
   -3.1751    3.3829   -1.8314 Cl  0  0  0  0  0  0  0  0  0  0  0  0
   -5.1128    1.5666   -1.2933 C   0  0  0  0  0  0  0  0  0  0  0  0
   -6.0219    2.5601   -1.3189 O   0  0  0  0  0  0  0  0  0  0  0  0
   -5.5595    0.2723   -1.0470 C   0  0  0  0  0  0  0  0  0  0  0  0
   -4.6640   -0.7840   -1.0140 C   0  0  0  0  0  0  0  0  0  0  0  0
   -5.1140   -2.0554   -0.8039 O   0  0  0  0  0  0  0  0  0  0  0  0
    5.1614    3.3805    2.6014 H   0  0  0  0  0  0  0  0  0  0  0  0
    6.1154    2.8925    1.1944 H   0  0  0  0  0  0  0  0  0  0  0  0
    6.8919    2.9836    2.8004 H   0  0  0  0  0  0  0  0  0  0  0  0
    4.7913   -1.2200    2.8430 H   0  0  0  0  0  0  0  0  0  0  0  0
    2.7783   -2.2870    1.8730 H   0  0  0  0  0  0  0  0  0  0  0  0
    1.7755    1.4074   -0.0902 H   0  0  0  0  0  0  0  0  0  0  0  0
    3.7742    2.4504    0.8814 H   0  0  0  0  0  0  0  0  0  0  0  0
    0.8851   -2.1137    0.6384 H   0  0  0  0  0  0  0  0  0  0  0  0
    0.3784   -3.5906   -1.1684 H   0  0  0  0  0  0  0  0  0  0  0  0
   -3.6249   -3.3215   -1.5128 H   0  0  0  0  0  0  0  0  0  0  0  0
   -1.8095    0.8940   -1.6644 H   0  0  0  0  0  0  0  0  0  0  0  0
   -5.5728    3.3993   -1.4994 H   0  0  0  0  0  0  0  0  0  0  0  0
   -6.6257    0.1149   -0.8938 H   0  0  0  0  0  0  0  0  0  0  0  0
   -6.0649   -2.0218   -0.6361 H   0  0  0  0  0  0  0  0  0  0  0  0
  2  1  2  0  0  0  0
  3  2  1  0  0  0  0
  3 27  1  0  0  0  0
  3 29  1  0  0  0  0
  4  5  1  0  0  0  0
  4  2  1  0  0  0  0
  5 30  1  0  0  0  0
  6 31  1  0  0  0  0
  6  5  2  0  0  0  0
  7  6  1  0  0  0  0
  8  7  2  0  0  0  0
  8  9  1  0  0  0  0
  9  4  2  0  0  0  0
 10 34  1  0  0  0  0
 10  7  1  0  0  0  0
 11 10  1  0  0  0  0
 12 11  2  0  0  0  0
 13 11  1  0  0  0  0
 14 35  1  0  0  0  0
 14 13  1  0  0  0  0
 15 16  1  0  0  0  0
 15 14  2  0  0  0  0
 16 17  1  0  0  0  0
 17 13  2  0  0  0  0
 18 17  1  0  0  0  0
 18 25  2  0  0  0  0
 19 18  1  0  0  0  0
 20 19  2  0  0  0  0
 20 22  1  0  0  0  0
 21 20  1  0  0  0  0
 22 24  2  0  0  0  0
 23 22  1  0  0  0  0
 24 25  1  0  0  0  0
 24 39  1  0  0  0  0
 25 26  1  0  0  0  0
 26 40  1  0  0  0  0
 28  3  1  0  0  0  0
 32  8  1  0  0  0  0
 33  9  1  0  0  0  0
 36 16  1  0  0  0  0
 37 19  1  0  0  0  0
 38 23  1  0  0  0  0
M  END
