omegacsd_CEJTIU_01.xyz
 OpenBabel12161914463D

 41 42  0  0  0  0  0  0  0  0999 V2000
   -6.3553   -0.6531   -0.8114 C   0  0  0  0  0  0  0  0  0  0  0  0
   -5.6533    0.0011    0.2690 N   0  0  0  0  0  0  0  0  0  0  0  0
   -6.3429    0.3285    1.4956 C   0  0  0  0  0  0  0  0  0  0  0  0
   -4.2892    0.1871    0.1853 C   0  0  0  0  0  0  0  0  0  0  0  0
   -3.5678   -0.1593   -0.9732 C   0  0  0  0  0  0  0  0  0  0  0  0
   -2.1996    0.0437   -1.0454 C   0  0  0  0  0  0  0  0  0  0  0  0
   -1.4888    0.5865    0.0264 C   0  0  0  0  0  0  0  0  0  0  0  0
   -2.1851    0.9303    1.1840 C   0  0  0  0  0  0  0  0  0  0  0  0
   -3.5565    0.7365    1.2551 C   0  0  0  0  0  0  0  0  0  0  0  0
   -0.1071    0.7769   -0.1353 N   0  0  0  0  0  0  0  0  0  0  0  0
    0.7963    1.0139    0.8546 C   0  0  0  0  0  0  0  0  0  0  0  0
    0.5679    1.1166    2.0448 O   0  0  0  0  0  0  0  0  0  0  0  0
    2.1310    1.1543    0.4069 N   0  0  0  0  0  0  0  0  0  0  0  0
    2.6425    1.0552   -0.8636 C   0  0  0  0  0  0  0  0  0  0  0  0
    1.9639    0.7851   -1.8453 O   0  0  0  0  0  0  0  0  0  0  0  0
    4.1446    1.2529   -0.9454 C   0  0  0  0  0  0  0  0  0  0  0  0
    4.8793   -0.0074   -0.5315 C   0  0  0  0  0  0  0  0  0  0  0  0
    5.8668    0.0175    0.4505 C   0  0  0  0  0  0  0  0  0  0  0  0
    6.5452   -1.1474    0.8019 C   0  0  0  0  0  0  0  0  0  0  0  0
    6.2384   -2.3492    0.1720 C   0  0  0  0  0  0  0  0  0  0  0  0
    5.2513   -2.3814   -0.8099 C   0  0  0  0  0  0  0  0  0  0  0  0
    4.5713   -1.2184   -1.1534 C   0  0  0  0  0  0  0  0  0  0  0  0
   -5.9775   -1.6702   -0.9888 H   0  0  0  0  0  0  0  0  0  0  0  0
   -7.4192   -0.7240   -0.5668 H   0  0  0  0  0  0  0  0  0  0  0  0
   -6.2600   -0.0912   -1.7500 H   0  0  0  0  0  0  0  0  0  0  0  0
   -7.4101    0.1159    1.3855 H   0  0  0  0  0  0  0  0  0  0  0  0
   -6.2322    1.3925    1.7435 H   0  0  0  0  0  0  0  0  0  0  0  0
   -5.9637   -0.2549    2.3467 H   0  0  0  0  0  0  0  0  0  0  0  0
   -4.0744   -0.5892   -1.8295 H   0  0  0  0  0  0  0  0  0  0  0  0
   -1.6690   -0.2330   -1.9554 H   0  0  0  0  0  0  0  0  0  0  0  0
   -1.6526    1.3450    2.0308 H   0  0  0  0  0  0  0  0  0  0  0  0
   -4.0587    1.0178    2.1739 H   0  0  0  0  0  0  0  0  0  0  0  0
    0.2798    0.6716   -1.0707 H   0  0  0  0  0  0  0  0  0  0  0  0
    2.7738    1.3106    1.1687 H   0  0  0  0  0  0  0  0  0  0  0  0
    4.3653    1.5107   -1.9863 H   0  0  0  0  0  0  0  0  0  0  0  0
    4.4470    2.0983   -0.3164 H   0  0  0  0  0  0  0  0  0  0  0  0
    6.1122    0.9564    0.9434 H   0  0  0  0  0  0  0  0  0  0  0  0
    7.3178   -1.1142    1.5666 H   0  0  0  0  0  0  0  0  0  0  0  0
    6.7684   -3.2595    0.4420 H   0  0  0  0  0  0  0  0  0  0  0  0
    5.0105   -3.3175   -1.3070 H   0  0  0  0  0  0  0  0  0  0  0  0
    3.7899   -1.2348   -1.9113 H   0  0  0  0  0  0  0  0  0  0  0  0
  1 24  1  0  0  0  0
  1  2  1  0  0  0  0
  2  3  1  0  0  0  0
  3 27  1  0  0  0  0
  3 28  1  0  0  0  0
  4  2  1  0  0  0  0
  4  9  2  0  0  0  0
  5  4  1  0  0  0  0
  6  5  2  0  0  0  0
  6  7  1  0  0  0  0
  7  8  2  0  0  0  0
  8  9  1  0  0  0  0
  8 31  1  0  0  0  0
  9 32  1  0  0  0  0
 10  7  1  0  0  0  0
 10 11  1  0  0  0  0
 11 12  2  0  0  0  0
 13 11  1  0  0  0  0
 13 34  1  0  0  0  0
 14 13  1  0  0  0  0
 15 14  2  0  0  0  0
 16 14  1  0  0  0  0
 16 17  1  0  0  0  0
 16 36  1  0  0  0  0
 17 18  2  0  0  0  0
 18 19  1  0  0  0  0
 18 37  1  0  0  0  0
 19 38  1  0  0  0  0
 20 39  1  0  0  0  0
 20 19  2  0  0  0  0
 21 20  1  0  0  0  0
 22 21  2  0  0  0  0
 22 17  1  0  0  0  0
 23  1  1  0  0  0  0
 25  1  1  0  0  0  0
 26  3  1  0  0  0  0
 29  5  1  0  0  0  0
 30  6  1  0  0  0  0
 33 10  1  0  0  0  0
 35 16  1  0  0  0  0
 40 21  1  0  0  0  0
 41 22  1  0  0  0  0
M  END
