omegacsd_FIBREN_16.xyz
 OpenBabel12161914463D

 39 41  0  0  1  0  0  0  0  0999 V2000
   -2.3876    0.9046   -1.9642 N   0  0  0  0  0  0  0  0  0  0  0  0
   -1.1359    0.4387   -2.0575 C   0  0  0  0  0  0  0  0  0  0  0  0
   -0.3342    0.0414   -1.0516 N   0  0  0  0  0  0  0  0  0  0  0  0
   -0.7903    0.1346    0.2044 C   0  0  0  0  0  0  0  0  0  0  0  0
   -2.0916    0.6206    0.4197 C   0  0  1  0  0  0  0  0  0  0  0  0
   -2.8008    0.9683   -0.7088 C   0  0  0  0  0  0  0  0  0  0  0  0
   -4.0289    1.3910   -0.2955 O   0  0  0  0  0  0  0  0  0  0  0  0
   -3.9868    1.2662    1.0762 C   0  0  0  0  0  0  0  0  0  0  0  0
   -2.8774    0.8159    1.5563 N   0  0  0  0  0  0  0  0  0  0  0  0
   -5.2218    1.6574    1.8034 C   0  0  0  0  0  0  0  0  0  0  0  0
   -0.0141   -0.2050    1.2607 N   0  0  0  0  0  0  0  0  0  0  0  0
    1.2594   -0.9070    1.1407 C   0  0  1  0  0  0  0  0  0  0  0  0
    1.0624   -2.3038    0.5414 C   0  0  0  0  0  0  0  0  0  0  0  0
    0.1491   -3.1526    1.4146 C   0  0  0  0  0  0  0  0  0  0  0  0
   -0.2916   -2.8085    2.4816 O   0  0  0  0  0  0  0  0  0  0  0  0
   -0.1485   -4.3789    0.9332 O   0  0  0  0  0  0  0  0  0  0  0  0
    2.3134   -0.0514    0.4476 C   0  0  0  0  0  0  0  0  0  0  0  0
    3.0759   -0.4846   -0.6355 C   0  0  0  0  0  0  0  0  0  0  0  0
    4.0632    0.3311   -1.1858 C   0  0  0  0  0  0  0  0  0  0  0  0
    4.2901    1.5998   -0.6656 C   0  0  0  0  0  0  0  0  0  0  0  0
    3.5174    2.0526    0.4005 C   0  0  0  0  0  0  0  0  0  0  0  0
    2.5342    1.2337    0.9452 C   0  0  0  0  0  0  0  0  0  0  0  0
   -0.5513    0.3242   -3.4381 C   0  0  0  0  0  0  0  0  0  0  0  0
   -6.0643    1.0352    1.4856 H   0  0  0  0  0  0  0  0  0  0  0  0
   -5.4766    2.7008    1.5945 H   0  0  0  0  0  0  0  0  0  0  0  0
   -5.0723    1.5338    2.8767 H   0  0  0  0  0  0  0  0  0  0  0  0
   -0.5278   -0.3914    2.1135 H   0  0  0  0  0  0  0  0  0  0  0  0
    1.5809   -1.0394    2.1776 H   0  0  0  0  0  0  0  0  0  0  0  0
    2.0285   -2.8200    0.4570 H   0  0  0  0  0  0  0  0  0  0  0  0
    0.6352   -2.2164   -0.4659 H   0  0  0  0  0  0  0  0  0  0  0  0
    0.2739   -4.5151    0.0735 H   0  0  0  0  0  0  0  0  0  0  0  0
    2.9021   -1.4675   -1.0682 H   0  0  0  0  0  0  0  0  0  0  0  0
    4.6562   -0.0342   -2.0209 H   0  0  0  0  0  0  0  0  0  0  0  0
    5.0629    2.2359   -1.0903 H   0  0  0  0  0  0  0  0  0  0  0  0
    3.6836    3.0445    0.8139 H   0  0  0  0  0  0  0  0  0  0  0  0
    1.9261    1.5924    1.7731 H   0  0  0  0  0  0  0  0  0  0  0  0
    0.5162    0.5559   -3.4050 H   0  0  0  0  0  0  0  0  0  0  0  0
   -1.0664    0.9973   -4.1272 H   0  0  0  0  0  0  0  0  0  0  0  0
   -0.6626   -0.7003   -3.8108 H   0  0  0  0  0  0  0  0  0  0  0  0
  1  6  2  0  0  0  0
  2  1  2  0  0  0  0
  2  3  1  0  0  0  0
  3  4  2  0  0  0  0
  4  5  1  0  0  0  0
  4 11  1  0  0  0  0
  5  6  1  6  0  0  0
  5  9  1  0  0  0  0
  6  7  1  0  0  0  0
  7  8  1  0  0  0  0
  8  9  2  0  0  0  0
  8 10  1  0  0  0  0
 10 26  1  0  0  0  0
 11 27  1  0  0  0  0
 12 11  1  0  0  0  0
 12 28  1  1  0  0  0
 13 12  1  0  0  0  0
 13 14  1  0  0  0  0
 14 15  2  0  0  0  0
 16 14  1  0  0  0  0
 17 22  1  0  0  0  0
 17 12  1  0  0  0  0
 18 17  2  0  0  0  0
 19 20  2  0  0  0  0
 19 18  1  0  0  0  0
 20 21  1  0  0  0  0
 21 35  1  0  0  0  0
 21 22  2  0  0  0  0
 22 36  1  0  0  0  0
 23 37  1  0  0  0  0
 23  2  1  0  0  0  0
 24 10  1  0  0  0  0
 25 10  1  0  0  0  0
 29 13  1  0  0  0  0
 30 13  1  0  0  0  0
 31 16  1  0  0  0  0
 32 18  1  0  0  0  0
 33 19  1  0  0  0  0
 34 20  1  0  0  0  0
 38 23  1  0  0  0  0
 39 23  1  0  0  0  0
M  RAD  1   5   2
M  END
