omegacsd_SEYMIS_08.xyz
 OpenBabel12161914463D

 45 47  0  0  0  0  0  0  0  0999 V2000
   -4.7988   -1.0724    1.2210 O   0  0  0  0  0  0  0  0  0  0  0  0
   -5.0112   -0.7188   -0.0834 N   0  0  0  0  0  0  0  0  0  0  0  0
   -3.8391   -0.4561   -0.6061 C   0  0  0  0  0  0  0  0  0  0  0  0
   -2.8055   -0.6137    0.3954 C   0  0  0  0  0  0  0  0  0  0  0  0
   -1.3337   -0.4417    0.3369 C   0  0  0  0  0  0  0  0  0  0  0  0
   -0.6539   -0.7018   -0.6444 O   0  0  0  0  0  0  0  0  0  0  0  0
   -0.7664    0.0226    1.4951 N   0  0  0  0  0  0  0  0  0  0  0  0
    0.6057    0.2714    1.6886 C   0  0  0  0  0  0  0  0  0  0  0  0
    1.1612    0.7915    2.8424 C   0  0  0  0  0  0  0  0  0  0  0  0
    2.5174    0.8658    2.6817 N   0  0  0  0  0  0  0  0  0  0  0  0
    3.4425    1.3538    3.6808 C   0  0  0  0  0  0  0  0  0  0  0  0
    2.8363    0.3994    1.4247 C   0  0  0  0  0  0  0  0  0  0  0  0
    1.6605    0.0265    0.7904 C   0  0  0  0  0  0  0  0  0  0  0  0
    4.2209    0.3473    0.9400 C   0  0  0  0  0  0  0  0  0  0  0  0
    5.2055    0.6732    1.5733 O   0  0  0  0  0  0  0  0  0  0  0  0
    4.2796   -0.1154   -0.3198 O   0  0  0  0  0  0  0  0  0  0  0  0
    5.5938   -0.2030   -0.9019 C   0  0  0  0  0  0  0  0  0  0  0  0
    5.4188   -0.7442   -2.3031 C   0  0  0  0  0  0  0  0  0  0  0  0
   -3.4986   -1.0101    1.5120 C   0  0  0  0  0  0  0  0  0  0  0  0
   -3.1342   -1.3981    2.9074 C   0  0  0  0  0  0  0  0  0  0  0  0
   -3.8065   -0.0404   -2.0281 C   0  0  0  0  0  0  0  0  0  0  0  0
   -4.9971    0.3961   -2.6161 C   0  0  0  0  0  0  0  0  0  0  0  0
   -5.0273    0.7844   -3.9485 C   0  0  0  0  0  0  0  0  0  0  0  0
   -3.8689    0.7295   -4.7156 C   0  0  0  0  0  0  0  0  0  0  0  0
   -2.6833    0.2861   -4.1391 C   0  0  0  0  0  0  0  0  0  0  0  0
   -2.6475   -0.0987   -2.8036 C   0  0  0  0  0  0  0  0  0  0  0  0
   -1.3735    0.3054    2.2471 H   0  0  0  0  0  0  0  0  0  0  0  0
    0.7055    1.1235    3.7662 H   0  0  0  0  0  0  0  0  0  0  0  0
    3.9938    2.2155    3.3024 H   0  0  0  0  0  0  0  0  0  0  0  0
    2.8703    1.6409    4.5662 H   0  0  0  0  0  0  0  0  0  0  0  0
    4.1647    0.5805    3.9452 H   0  0  0  0  0  0  0  0  0  0  0  0
    1.5559   -0.3751   -0.2055 H   0  0  0  0  0  0  0  0  0  0  0  0
    6.0513    0.7906   -0.8999 H   0  0  0  0  0  0  0  0  0  0  0  0
    6.2143   -0.8579   -0.2835 H   0  0  0  0  0  0  0  0  0  0  0  0
    4.9575   -1.7352   -2.2772 H   0  0  0  0  0  0  0  0  0  0  0  0
    4.7880   -0.0765   -2.8961 H   0  0  0  0  0  0  0  0  0  0  0  0
    6.3914   -0.8291   -2.7976 H   0  0  0  0  0  0  0  0  0  0  0  0
   -3.9403   -1.9940    3.3403 H   0  0  0  0  0  0  0  0  0  0  0  0
   -2.2060   -1.9727    2.9264 H   0  0  0  0  0  0  0  0  0  0  0  0
   -2.9899   -0.5189    3.5461 H   0  0  0  0  0  0  0  0  0  0  0  0
   -5.9041    0.4248   -2.0201 H   0  0  0  0  0  0  0  0  0  0  0  0
   -5.9609    1.1262   -4.3885 H   0  0  0  0  0  0  0  0  0  0  0  0
   -3.8907    1.0291   -5.7600 H   0  0  0  0  0  0  0  0  0  0  0  0
   -1.7740    0.2358   -4.7320 H   0  0  0  0  0  0  0  0  0  0  0  0
   -1.7235   -0.4460   -2.3599 H   0  0  0  0  0  0  0  0  0  0  0  0
  1 19  1  0  0  0  0
  2  1  1  0  0  0  0
  3  2  2  0  0  0  0
  3  4  1  0  0  0  0
  4 19  2  0  0  0  0
  5  4  1  0  0  0  0
  5  7  1  0  0  0  0
  6  5  2  0  0  0  0
  7  8  1  0  0  0  0
  7 27  1  0  0  0  0
  8  9  2  0  0  0  0
  9 28  1  0  0  0  0
 10  9  1  0  0  0  0
 10 11  1  0  0  0  0
 11 31  1  0  0  0  0
 11 30  1  0  0  0  0
 12 10  1  0  0  0  0
 13 12  2  0  0  0  0
 13  8  1  0  0  0  0
 14 12  1  0  0  0  0
 14 15  2  0  0  0  0
 16 14  1  0  0  0  0
 17 33  1  0  0  0  0
 17 16  1  0  0  0  0
 17 34  1  0  0  0  0
 18 35  1  0  0  0  0
 18 17  1  0  0  0  0
 19 20  1  0  0  0  0
 20 39  1  0  0  0  0
 20 38  1  0  0  0  0
 20 40  1  0  0  0  0
 21  3  1  0  0  0  0
 22 21  1  0  0  0  0
 22 41  1  0  0  0  0
 23 22  2  0  0  0  0
 24 25  2  0  0  0  0
 24 23  1  0  0  0  0
 25 26  1  0  0  0  0
 26 45  1  0  0  0  0
 26 21  2  0  0  0  0
 29 11  1  0  0  0  0
 32 13  1  0  0  0  0
 36 18  1  0  0  0  0
 37 18  1  0  0  0  0
 42 23  1  0  0  0  0
 43 24  1  0  0  0  0
 44 25  1  0  0  0  0
M  END
