omegapdb_1v2k_06.xyz
 OpenBabel12161914463D

 61 65  0  0  0  0  0  0  0  0999 V2000
    9.4654   -0.0730   -1.2448 N   0  0  0  0  0  0  0  0  0  0  0  0
    8.7539    0.9824   -1.6473 C   0  0  0  0  0  0  0  0  0  0  0  0
    7.4101    1.1795   -1.3729 C   0  0  0  0  0  0  0  0  0  0  0  0
    6.7200    0.2212   -0.6150 C   0  0  0  0  0  0  0  0  0  0  0  0
    7.4582   -0.8912   -0.1858 C   0  0  0  0  0  0  0  0  0  0  0  0
    8.8010   -0.9783   -0.5263 C   0  0  0  0  0  0  0  0  0  0  0  0
    5.3772    0.4146   -0.2996 N   0  0  0  0  0  0  0  0  0  0  0  0
    4.7750   -0.4587    0.6980 C   0  0  0  0  0  0  0  0  0  0  0  0
    3.4946    0.1514    1.2573 C   0  0  0  0  0  0  0  0  0  0  0  0
    2.5066    0.4725    0.1295 C   0  0  0  0  0  0  0  0  0  0  0  0
    3.1954    1.3709   -0.8992 C   0  0  0  0  0  0  0  0  0  0  0  0
    4.4778    0.7303   -1.4052 C   0  0  0  0  0  0  0  0  0  0  0  0
    1.2872    1.1914    0.6903 C   0  0  0  0  0  0  0  0  0  0  0  0
    1.3148    2.3968    0.9003 O   0  0  0  0  0  0  0  0  0  0  0  0
    0.1659    0.4520    0.9544 N   0  0  0  0  0  0  0  0  0  0  0  0
   -1.0856    1.1604    1.2124 C   0  0  0  0  0  0  0  0  0  0  0  0
   -2.2253    0.4300    0.5080 C   0  0  0  0  0  0  0  0  0  0  0  0
   -2.3495   -0.9590    0.9928 N   0  0  0  0  0  0  0  0  0  0  0  0
   -1.1484   -1.4667    1.6745 C   0  0  0  0  0  0  0  0  0  0  0  0
    0.1264   -1.0127    0.9696 C   0  0  0  0  0  0  0  0  0  0  0  0
   -2.9767   -2.0467   -0.1389 S   0  0  0  0  0  0  0  0  0  0  0  0
   -2.1472   -2.0413   -1.3391 O   0  0  0  0  0  0  0  0  0  0  0  0
   -3.2108   -3.2946    0.5726 O   0  0  0  0  0  0  0  0  0  0  0  0
   -4.5296   -1.2960   -0.5502 C   0  0  0  0  0  0  0  0  0  0  0  0
   -5.4089   -0.9725    0.4486 C   0  0  0  0  0  0  0  0  0  0  0  0
   -6.6085   -0.2767    0.1297 C   0  0  0  0  0  0  0  0  0  0  0  0
   -6.8831    0.0461   -1.2238 C   0  0  0  0  0  0  0  0  0  0  0  0
   -5.9601   -0.3482   -2.2334 C   0  0  0  0  0  0  0  0  0  0  0  0
   -4.8037   -1.0047   -1.9078 C   0  0  0  0  0  0  0  0  0  0  0  0
   -8.0709    0.7594   -1.5420 C   0  0  0  0  0  0  0  0  0  0  0  0
   -8.9351    1.1211   -0.5467 C   0  0  0  0  0  0  0  0  0  0  0  0
   -8.6783    0.8010    0.8081 C   0  0  0  0  0  0  0  0  0  0  0  0
   -7.5371    0.1159    1.1279 C   0  0  0  0  0  0  0  0  0  0  0  0
  -10.3915    1.9957   -0.9318 Cl  0  0  0  0  0  0  0  0  0  0  0  0
    9.2898    1.7224   -2.2406 H   0  0  0  0  0  0  0  0  0  0  0  0
    6.9107    2.0838   -1.7082 H   0  0  0  0  0  0  0  0  0  0  0  0
    6.9941   -1.6921    0.3787 H   0  0  0  0  0  0  0  0  0  0  0  0
    9.3785   -1.8398   -0.1923 H   0  0  0  0  0  0  0  0  0  0  0  0
    4.5519   -1.4558    0.2703 H   0  0  0  0  0  0  0  0  0  0  0  0
    5.4932   -0.5977    1.5109 H   0  0  0  0  0  0  0  0  0  0  0  0
    3.0561   -0.5385    1.9894 H   0  0  0  0  0  0  0  0  0  0  0  0
    3.7306    1.0790    1.7912 H   0  0  0  0  0  0  0  0  0  0  0  0
    2.2015   -0.4623   -0.3605 H   0  0  0  0  0  0  0  0  0  0  0  0
    3.4103    2.3324   -0.4219 H   0  0  0  0  0  0  0  0  0  0  0  0
    2.5271    1.5723   -1.7442 H   0  0  0  0  0  0  0  0  0  0  0  0
    4.2414   -0.1818   -1.9858 H   0  0  0  0  0  0  0  0  0  0  0  0
    4.9857    1.4120   -2.0902 H   0  0  0  0  0  0  0  0  0  0  0  0
   -0.9795    2.1730    0.8208 H   0  0  0  0  0  0  0  0  0  0  0  0
   -1.2741    1.2532    2.2917 H   0  0  0  0  0  0  0  0  0  0  0  0
   -3.1755    0.9438    0.6912 H   0  0  0  0  0  0  0  0  0  0  0  0
   -2.0376    0.4431   -0.5753 H   0  0  0  0  0  0  0  0  0  0  0  0
   -1.1573   -1.0867    2.7026 H   0  0  0  0  0  0  0  0  0  0  0  0
   -1.2134   -2.5551    1.7278 H   0  0  0  0  0  0  0  0  0  0  0  0
    0.9952   -1.4080    1.5069 H   0  0  0  0  0  0  0  0  0  0  0  0
    0.1458   -1.4160   -0.0521 H   0  0  0  0  0  0  0  0  0  0  0  0
   -5.1924   -1.2231    1.4840 H   0  0  0  0  0  0  0  0  0  0  0  0
   -6.1841   -0.1125   -3.2704 H   0  0  0  0  0  0  0  0  0  0  0  0
   -4.0816   -1.3007   -2.6634 H   0  0  0  0  0  0  0  0  0  0  0  0
   -8.2831    1.0160   -2.5762 H   0  0  0  0  0  0  0  0  0  0  0  0
   -9.3891    1.1033    1.5704 H   0  0  0  0  0  0  0  0  0  0  0  0
   -7.3232   -0.1365    2.1643 H   0  0  0  0  0  0  0  0  0  0  0  0
  1  6  2  0  0  0  0
  2  3  2  0  0  0  0
  2  1  1  0  0  0  0
  3  4  1  0  0  0  0
  4  7  1  0  0  0  0
  4  5  2  0  0  0  0
  5 37  1  0  0  0  0
  6 38  1  0  0  0  0
  6  5  1  0  0  0  0
  7  8  1  0  0  0  0
  8  9  1  0  0  0  0
  8 40  1  0  0  0  0
  9 42  1  0  0  0  0
  9 41  1  0  0  0  0
 10 13  1  0  0  0  0
 10  9  1  0  0  0  0
 11 44  1  0  0  0  0
 11 10  1  0  0  0  0
 12 11  1  0  0  0  0
 12  7  1  0  0  0  0
 13 14  2  0  0  0  0
 13 15  1  0  0  0  0
 15 20  1  0  0  0  0
 15 16  1  0  0  0  0
 16 49  1  0  0  0  0
 17 50  1  0  0  0  0
 17 18  1  0  0  0  0
 17 16  1  0  0  0  0
 18 19  1  0  0  0  0
 19 53  1  0  0  0  0
 19 52  1  0  0  0  0
 20 54  1  0  0  0  0
 20 19  1  0  0  0  0
 21 23  2  0  0  0  0
 21 18  1  0  0  0  0
 22 21  2  0  0  0  0
 24 21  1  0  0  0  0
 24 25  2  0  0  0  0
 25 56  1  0  0  0  0
 26 25  1  0  0  0  0
 26 33  2  0  0  0  0
 27 26  1  0  0  0  0
 28 29  2  0  0  0  0
 28 27  1  0  0  0  0
 29 24  1  0  0  0  0
 30 27  2  0  0  0  0
 30 31  1  0  0  0  0
 31 32  2  0  0  0  0
 32 33  1  0  0  0  0
 32 60  1  0  0  0  0
 33 61  1  0  0  0  0
 34 31  1  0  0  0  0
 35  2  1  0  0  0  0
 36  3  1  0  0  0  0
 39  8  1  0  0  0  0
 43 10  1  0  0  0  0
 45 11  1  0  0  0  0
 46 12  1  0  0  0  0
 47 12  1  0  0  0  0
 48 16  1  0  0  0  0
 51 17  1  0  0  0  0
 55 20  1  0  0  0  0
 57 28  1  0  0  0  0
 58 29  1  0  0  0  0
 59 30  1  0  0  0  0
M  END
