omegacsd_GALSEM_15.xyz
 OpenBabel12161914463D

 39 40  0  0  0  0  0  0  0  0999 V2000
    2.5415   -1.4443    0.3186 S   0  0  0  0  0  0  0  0  0  0  0  0
    3.5791   -2.2995    0.8521 O   0  0  0  0  0  0  0  0  0  0  0  0
    2.6499   -0.8905   -1.0322 O   0  0  0  0  0  0  0  0  0  0  0  0
    2.3222   -0.1610    1.4153 N   0  0  0  0  0  0  0  0  0  0  0  0
    3.3064    0.8390    1.4207 C   0  0  0  0  0  0  0  0  0  0  0  0
    4.4410    0.6534    1.0532 O   0  0  0  0  0  0  0  0  0  0  0  0
    2.7989    2.1717    1.9355 C   0  0  0  0  0  0  0  0  0  0  0  0
    3.9425    3.1488    2.1731 C   0  0  0  0  0  0  0  0  0  0  0  0
    1.0141   -2.3296    0.4303 C   0  0  0  0  0  0  0  0  0  0  0  0
   -0.1349   -1.9226   -0.2769 C   0  0  0  0  0  0  0  0  0  0  0  0
   -0.0962   -0.8336   -1.1172 N   0  0  0  0  0  0  0  0  0  0  0  0
   -1.1642   -0.0477   -1.5507 C   0  0  0  0  0  0  0  0  0  0  0  0
   -2.3238    0.1366   -0.7945 C   0  0  0  0  0  0  0  0  0  0  0  0
   -3.3517    0.9284   -1.2935 C   0  0  0  0  0  0  0  0  0  0  0  0
   -3.2375    1.5654   -2.5241 C   0  0  0  0  0  0  0  0  0  0  0  0
   -2.0634    1.4131   -3.2568 C   0  0  0  0  0  0  0  0  0  0  0  0
   -1.0307    0.6213   -2.7728 C   0  0  0  0  0  0  0  0  0  0  0  0
   -4.6158    1.0937   -0.4972 C   0  0  0  0  0  0  0  0  0  0  0  0
   -4.5922    0.3959    0.6520 F   0  0  0  0  0  0  0  0  0  0  0  0
   -5.6940    0.6836   -1.1954 F   0  0  0  0  0  0  0  0  0  0  0  0
   -4.8350    2.3850   -0.1789 F   0  0  0  0  0  0  0  0  0  0  0  0
   -1.2781   -2.7084   -0.0966 C   0  0  0  0  0  0  0  0  0  0  0  0
   -1.2233   -3.7995    0.7606 C   0  0  0  0  0  0  0  0  0  0  0  0
   -0.1403   -4.1709    1.4491 N   0  0  0  0  0  0  0  0  0  0  0  0
    0.9534   -3.4339    1.2745 C   0  0  0  0  0  0  0  0  0  0  0  0
    1.3704    0.1870    1.4976 H   0  0  0  0  0  0  0  0  0  0  0  0
    2.2153    2.0074    2.8501 H   0  0  0  0  0  0  0  0  0  0  0  0
    2.1060    2.5777    1.1832 H   0  0  0  0  0  0  0  0  0  0  0  0
    4.5496    3.2414    1.2691 H   0  0  0  0  0  0  0  0  0  0  0  0
    4.6017    2.7959    2.9713 H   0  0  0  0  0  0  0  0  0  0  0  0
    3.5614    4.1373    2.4456 H   0  0  0  0  0  0  0  0  0  0  0  0
    0.8229   -0.6138   -1.4942 H   0  0  0  0  0  0  0  0  0  0  0  0
   -2.4192   -0.3123    0.1884 H   0  0  0  0  0  0  0  0  0  0  0  0
   -4.0547    2.1770   -2.8924 H   0  0  0  0  0  0  0  0  0  0  0  0
   -1.9501    1.9195   -4.2108 H   0  0  0  0  0  0  0  0  0  0  0  0
   -0.1101    0.5069   -3.3434 H   0  0  0  0  0  0  0  0  0  0  0  0
   -2.1943   -2.4786   -0.6317 H   0  0  0  0  0  0  0  0  0  0  0  0
   -2.1118   -4.4103    0.9051 H   0  0  0  0  0  0  0  0  0  0  0  0
    1.8449   -3.7295    1.8235 H   0  0  0  0  0  0  0  0  0  0  0  0
  1  9  1  0  0  0  0
  1  2  2  0  0  0  0
  1  4  1  0  0  0  0
  3  1  2  0  0  0  0
  4  5  1  0  0  0  0
  4 26  1  0  0  0  0
  5  7  1  0  0  0  0
  6  5  2  0  0  0  0
  7  8  1  0  0  0  0
  7 27  1  0  0  0  0
  8 31  1  0  0  0  0
  8 30  1  0  0  0  0
  9 25  2  0  0  0  0
 10 22  2  0  0  0  0
 10  9  1  0  0  0  0
 11 10  1  0  0  0  0
 12 11  1  0  0  0  0
 12 13  2  0  0  0  0
 13 33  1  0  0  0  0
 14 13  1  0  0  0  0
 14 18  1  0  0  0  0
 15 14  2  0  0  0  0
 16 17  2  0  0  0  0
 16 15  1  0  0  0  0
 17 12  1  0  0  0  0
 18 21  1  0  0  0  0
 18 19  1  0  0  0  0
 20 18  1  0  0  0  0
 22 23  1  0  0  0  0
 23 38  1  0  0  0  0
 23 24  2  0  0  0  0
 25 24  1  0  0  0  0
 25 39  1  0  0  0  0
 28  7  1  0  0  0  0
 29  8  1  0  0  0  0
 32 11  1  0  0  0  0
 34 15  1  0  0  0  0
 35 16  1  0  0  0  0
 36 17  1  0  0  0  0
 37 22  1  0  0  0  0
M  END
