omegapdb_1xom_22.xyz
 OpenBabel12161914463D

 50 52  0  0  1  0  0  0  0  0999 V2000
    7.1195   -0.7350   -0.5470 O   0  0  0  0  0  0  0  0  0  0  0  0
    6.2257    0.2330   -0.2291 C   0  0  0  0  0  0  0  0  0  0  0  0
    6.5214    1.0746    0.5754 O   0  0  0  0  0  0  0  0  0  0  0  0
    4.8623    0.1235   -0.9062 C   0  0  1  0  0  0  0  0  0  0  0  0
    4.0440   -1.0149   -0.2450 C   0  0  0  0  0  0  0  0  0  0  0  0
    3.1717   -0.4713    0.8865 C   0  0  0  0  0  0  0  0  0  0  0  0
    2.0650    0.4747    0.3433 C   0  0  2  0  0  0  0  0  0  0  0  0
    2.5997    1.2443   -0.9100 C   0  0  0  0  0  0  0  0  0  0  0  0
    4.1092    1.4624   -0.8441 C   0  0  0  0  0  0  0  0  0  0  0  0
    1.7752    1.4690    1.4081 C   0  0  0  0  0  0  0  0  0  0  0  0
    1.5512    2.2565    2.2266 N   0  0  0  0  0  0  0  0  0  0  0  0
    0.7495   -0.2460   -0.0182 C   0  0  0  0  0  0  0  0  0  0  0  0
    0.6549   -1.6187   -0.2238 C   0  0  0  0  0  0  0  0  0  0  0  0
   -0.5482   -2.2113   -0.6089 C   0  0  0  0  0  0  0  0  0  0  0  0
   -1.6904   -1.4406   -0.8012 C   0  0  0  0  0  0  0  0  0  0  0  0
   -2.9123   -1.9215   -1.1441 O   0  0  0  0  0  0  0  0  0  0  0  0
   -3.0321   -3.3132   -1.3435 C   0  0  0  0  0  0  0  0  0  0  0  0
   -1.5991   -0.0526   -0.6119 C   0  0  0  0  0  0  0  0  0  0  0  0
   -0.4019    0.5203   -0.2140 C   0  0  0  0  0  0  0  0  0  0  0  0
   -2.7010    0.7329   -0.8258 O   0  0  0  0  0  0  0  0  0  0  0  0
   -3.3201    1.1485    0.3893 C   0  0  0  0  0  0  0  0  0  0  0  0
   -3.9964    0.0189    1.1613 C   0  0  0  0  0  0  0  0  0  0  0  0
   -4.9206    0.7763    2.1228 C   0  0  0  0  0  0  0  0  0  0  0  0
   -5.3986    2.0199    1.3256 C   0  0  0  0  0  0  0  0  0  0  0  0
   -4.4721    2.1025    0.0892 C   0  0  0  0  0  0  0  0  0  0  0  0
    6.7482   -1.3217   -1.2201 H   0  0  0  0  0  0  0  0  0  0  0  0
    5.0372   -0.1513   -1.9561 H   0  0  0  0  0  0  0  0  0  0  0  0
    4.7139   -1.7972    0.1279 H   0  0  0  0  0  0  0  0  0  0  0  0
    3.4041   -1.4777   -1.0060 H   0  0  0  0  0  0  0  0  0  0  0  0
    3.8062    0.0823    1.5879 H   0  0  0  0  0  0  0  0  0  0  0  0
    2.7086   -1.2766    1.4640 H   0  0  0  0  0  0  0  0  0  0  0  0
    2.0682    2.1967   -1.0094 H   0  0  0  0  0  0  0  0  0  0  0  0
    2.3562    0.6585   -1.8034 H   0  0  0  0  0  0  0  0  0  0  0  0
    4.4350    2.1053   -1.6672 H   0  0  0  0  0  0  0  0  0  0  0  0
    4.3812    1.9774    0.0811 H   0  0  0  0  0  0  0  0  0  0  0  0
    1.5152   -2.2682   -0.0813 H   0  0  0  0  0  0  0  0  0  0  0  0
   -0.5845   -3.2863   -0.7479 H   0  0  0  0  0  0  0  0  0  0  0  0
   -2.3914   -3.6578   -2.1664 H   0  0  0  0  0  0  0  0  0  0  0  0
   -4.0767   -3.4900   -1.6006 H   0  0  0  0  0  0  0  0  0  0  0  0
   -2.7805   -3.8683   -0.4299 H   0  0  0  0  0  0  0  0  0  0  0  0
   -0.3812    1.5965   -0.0582 H   0  0  0  0  0  0  0  0  0  0  0  0
   -2.5653    1.6345    1.0288 H   0  0  0  0  0  0  0  0  0  0  0  0
   -3.2813   -0.6450    1.6604 H   0  0  0  0  0  0  0  0  0  0  0  0
   -4.5795   -0.5851    0.4584 H   0  0  0  0  0  0  0  0  0  0  0  0
   -4.3558    1.0968    3.0067 H   0  0  0  0  0  0  0  0  0  0  0  0
   -5.7515    0.1614    2.4832 H   0  0  0  0  0  0  0  0  0  0  0  0
   -6.4445    1.9205    1.0171 H   0  0  0  0  0  0  0  0  0  0  0  0
   -5.3326    2.9229    1.9423 H   0  0  0  0  0  0  0  0  0  0  0  0
   -4.1265    3.1167   -0.1347 H   0  0  0  0  0  0  0  0  0  0  0  0
   -4.9789    1.7239   -0.8061 H   0  0  0  0  0  0  0  0  0  0  0  0
  1  2  1  0  0  0  0
  2  3  2  0  0  0  0
  4 27  1  6  0  0  0
  4  9  1  0  0  0  0
  4  5  1  0  0  0  0
  4  2  1  0  0  0  0
  5 28  1  0  0  0  0
  5  6  1  0  0  0  0
  6 31  1  0  0  0  0
  6 30  1  0  0  0  0
  7  6  1  0  0  0  0
  7 10  1  1  0  0  0
  8  9  1  0  0  0  0
  8  7  1  0  0  0  0
  9 35  1  0  0  0  0
 10 11  3  0  0  0  0
 12  7  1  0  0  0  0
 13 36  1  0  0  0  0
 13 12  1  0  0  0  0
 14 13  2  0  0  0  0
 15 18  2  0  0  0  0
 15 14  1  0  0  0  0
 16 15  1  0  0  0  0
 17 16  1  0  0  0  0
 17 40  1  0  0  0  0
 18 19  1  0  0  0  0
 19 41  1  0  0  0  0
 19 12  2  0  0  0  0
 20 18  1  0  0  0  0
 20 21  1  0  0  0  0
 21 42  1  0  0  0  0
 21 22  1  0  0  0  0
 22 43  1  0  0  0  0
 22 23  1  0  0  0  0
 23 46  1  0  0  0  0
 23 45  1  0  0  0  0
 24 48  1  0  0  0  0
 24 23  1  0  0  0  0
 25 21  1  0  0  0  0
 25 24  1  0  0  0  0
 26  1  1  0  0  0  0
 29  5  1  0  0  0  0
 32  8  1  0  0  0  0
 33  8  1  0  0  0  0
 34  9  1  0  0  0  0
 37 14  1  0  0  0  0
 38 17  1  0  0  0  0
 39 17  1  0  0  0  0
 44 22  1  0  0  0  0
 47 24  1  0  0  0  0
 49 25  1  0  0  0  0
 50 25  1  0  0  0  0
M  END
