omegapdb_1z1r_19.xyz
 OpenBabel12161914463D

 66 68  0  0  1  0  0  0  0  0999 V2000
    0.4298   -0.0806    0.0818 C   0  0  2  0  0  0  0  0  0  0  0  0
    0.7070   -1.2375   -0.8981 C   0  0  0  0  0  0  0  0  0  0  0  0
   -0.4338   -2.2316   -0.9214 C   0  0  0  0  0  0  0  0  0  0  0  0
   -1.3401   -2.2773   -1.9842 C   0  0  0  0  0  0  0  0  0  0  0  0
   -2.5146   -3.0184   -1.9056 C   0  0  0  0  0  0  0  0  0  0  0  0
   -2.7905   -3.7434   -0.7470 C   0  0  0  0  0  0  0  0  0  0  0  0
   -1.8386   -3.8120    0.2698 C   0  0  0  0  0  0  0  0  0  0  0  0
   -0.6831   -3.0515    0.1847 C   0  0  0  0  0  0  0  0  0  0  0  0
   -3.9783   -4.3952   -0.5594 O   0  0  0  0  0  0  0  0  0  0  0  0
   -5.1622   -3.6044   -0.6375 C   0  0  0  0  0  0  0  0  0  0  0  0
   -5.3168   -2.5719    0.4794 C   0  0  0  0  0  0  0  0  0  0  0  0
   -4.5284   -1.2780    0.2852 C   0  0  0  0  0  0  0  0  0  0  0  0
   -4.7340   -0.3333    1.4650 C   0  0  0  0  0  0  0  0  0  0  0  0
   -5.4493   -0.6228    2.4091 O   0  0  0  0  0  0  0  0  0  0  0  0
   -4.0819    0.8705    1.4235 N   0  0  0  0  0  0  0  0  0  0  0  0
   -3.1191    1.3242    0.4509 C   0  0  2  0  0  0  0  0  0  0  0  0
   -1.6774    0.9435    0.8474 C   0  0  0  0  0  0  0  0  0  0  0  0
   -1.2503    1.0823    1.9812 O   0  0  0  0  0  0  0  0  0  0  0  0
   -0.8888    0.4951   -0.1759 N   0  0  0  0  0  0  0  0  0  0  0  0
   -3.2296    2.8506    0.2609 C   0  0  0  0  0  0  0  0  0  0  0  0
   -2.9981    3.6481    1.5383 C   0  0  0  0  0  0  0  0  0  0  0  0
   -3.5766    3.3964    2.5869 O   0  0  0  0  0  0  0  0  0  0  0  0
   -2.1508    4.6999    1.4258 N   0  0  0  0  0  0  0  0  0  0  0  0
    1.4736    1.0582    0.0473 C   0  0  2  0  0  0  0  0  0  0  0  0
    1.4701    1.7302   -1.1993 O   0  0  0  0  0  0  0  0  0  0  0  0
    2.9038    0.5921    0.2970 C   0  0  0  0  0  0  0  0  0  0  0  0
    3.4976    0.0560   -0.9222 N   0  0  0  0  0  0  0  0  0  0  0  0
    4.9648   -0.7147   -0.8496 S   0  0  0  0  0  0  0  0  0  0  0  0
    4.8661   -1.6975    0.2148 O   0  0  0  0  0  0  0  0  0  0  0  0
    5.2942   -1.0862   -2.2139 O   0  0  0  0  0  0  0  0  0  0  0  0
    6.1137    0.5335   -0.3276 C   0  0  0  0  0  0  0  0  0  0  0  0
    6.3197    0.7451    1.0329 C   0  0  0  0  0  0  0  0  0  0  0  0
    7.1779    1.7604    1.4386 C   0  0  0  0  0  0  0  0  0  0  0  0
    7.8225    2.5511    0.4898 C   0  0  0  0  0  0  0  0  0  0  0  0
    7.6183    2.3197   -0.8686 C   0  0  0  0  0  0  0  0  0  0  0  0
    6.7645    1.3040   -1.2859 C   0  0  0  0  0  0  0  0  0  0  0  0
    0.4119   -0.4605    1.1091 H   0  0  0  0  0  0  0  0  0  0  0  0
    1.6346   -1.7421   -0.5980 H   0  0  0  0  0  0  0  0  0  0  0  0
    0.8730   -0.8209   -1.8985 H   0  0  0  0  0  0  0  0  0  0  0  0
   -1.1474   -1.6925   -2.8813 H   0  0  0  0  0  0  0  0  0  0  0  0
   -3.2239   -3.0167   -2.7294 H   0  0  0  0  0  0  0  0  0  0  0  0
   -2.0577   -4.4184    1.1452 H   0  0  0  0  0  0  0  0  0  0  0  0
    0.0239   -3.0753    1.0121 H   0  0  0  0  0  0  0  0  0  0  0  0
   -5.2286   -3.1119   -1.6196 H   0  0  0  0  0  0  0  0  0  0  0  0
   -5.9709   -4.3372   -0.5785 H   0  0  0  0  0  0  0  0  0  0  0  0
   -6.3791   -2.3082    0.5525 H   0  0  0  0  0  0  0  0  0  0  0  0
   -5.0485   -3.0268    1.4382 H   0  0  0  0  0  0  0  0  0  0  0  0
   -3.4510   -1.4579    0.1821 H   0  0  0  0  0  0  0  0  0  0  0  0
   -4.8499   -0.7811   -0.6414 H   0  0  0  0  0  0  0  0  0  0  0  0
   -4.1536    1.4398    2.2629 H   0  0  0  0  0  0  0  0  0  0  0  0
   -3.3636    0.8667   -0.5162 H   0  0  0  0  0  0  0  0  0  0  0  0
   -1.3184    0.2673   -1.0604 H   0  0  0  0  0  0  0  0  0  0  0  0
   -2.5563    3.1795   -0.5379 H   0  0  0  0  0  0  0  0  0  0  0  0
   -4.2544    3.0675   -0.0575 H   0  0  0  0  0  0  0  0  0  0  0  0
   -1.6138    4.8749    0.5933 H   0  0  0  0  0  0  0  0  0  0  0  0
   -1.9382    5.2207    2.2631 H   0  0  0  0  0  0  0  0  0  0  0  0
    1.1875    1.7491    0.8551 H   0  0  0  0  0  0  0  0  0  0  0  0
    0.5738    2.0769   -1.3128 H   0  0  0  0  0  0  0  0  0  0  0  0
    3.4900    1.4409    0.6776 H   0  0  0  0  0  0  0  0  0  0  0  0
    2.9222   -0.1868    1.0655 H   0  0  0  0  0  0  0  0  0  0  0  0
    3.3748    0.6254   -1.7530 H   0  0  0  0  0  0  0  0  0  0  0  0
    5.8153    0.1115    1.7579 H   0  0  0  0  0  0  0  0  0  0  0  0
    7.3450    1.9338    2.4976 H   0  0  0  0  0  0  0  0  0  0  0  0
    8.4880    3.3483    0.8111 H   0  0  0  0  0  0  0  0  0  0  0  0
    8.1294    2.9316   -1.6066 H   0  0  0  0  0  0  0  0  0  0  0  0
    6.6046    1.0977   -2.3408 H   0  0  0  0  0  0  0  0  0  0  0  0
  1 37  1  1  0  0  0
  2 38  1  0  0  0  0
  2  1  1  0  0  0  0
  3  2  1  0  0  0  0
  3  8  2  0  0  0  0
  4  5  2  0  0  0  0
  4  3  1  0  0  0  0
  5  6  1  0  0  0  0
  6  9  1  0  0  0  0
  6  7  2  0  0  0  0
  7 42  1  0  0  0  0
  8  7  1  0  0  0  0
  8 43  1  0  0  0  0
 10 45  1  0  0  0  0
 10  9  1  0  0  0  0
 10 11  1  0  0  0  0
 11 46  1  0  0  0  0
 11 47  1  0  0  0  0
 12 11  1  0  0  0  0
 12 13  1  0  0  0  0
 13 14  2  0  0  0  0
 15 13  1  0  0  0  0
 15 50  1  0  0  0  0
 16 51  1  6  0  0  0
 16 17  1  0  0  0  0
 16 15  1  0  0  0  0
 17 18  2  0  0  0  0
 19  1  1  0  0  0  0
 19 17  1  0  0  0  0
 20 16  1  0  0  0  0
 20 21  1  0  0  0  0
 21 22  2  0  0  0  0
 23 21  1  0  0  0  0
 23 56  1  0  0  0  0
 24  1  1  0  0  0  0
 24 26  1  0  0  0  0
 24 57  1  1  0  0  0
 25 24  1  0  0  0  0
 26 59  1  0  0  0  0
 26 60  1  0  0  0  0
 27 28  1  0  0  0  0
 27 26  1  0  0  0  0
 28 31  1  0  0  0  0
 28 29  2  0  0  0  0
 30 28  2  0  0  0  0
 31 32  2  0  0  0  0
 32 33  1  0  0  0  0
 32 62  1  0  0  0  0
 33 63  1  0  0  0  0
 34 64  1  0  0  0  0
 34 33  2  0  0  0  0
 35 34  1  0  0  0  0
 36 35  2  0  0  0  0
 36 31  1  0  0  0  0
 39  2  1  0  0  0  0
 40  4  1  0  0  0  0
 41  5  1  0  0  0  0
 44 10  1  0  0  0  0
 48 12  1  0  0  0  0
 49 12  1  0  0  0  0
 52 19  1  0  0  0  0
 53 20  1  0  0  0  0
 54 20  1  0  0  0  0
 55 23  1  0  0  0  0
 58 25  1  0  0  0  0
 61 27  1  0  0  0  0
 65 35  1  0  0  0  0
 66 36  1  0  0  0  0
M  END
