omegapdb_1xom_01.xyz
 OpenBabel12161914463D

 50 52  0  0  1  0  0  0  0  0999 V2000
    6.0865    2.6460   -0.6547 O   0  0  0  0  0  0  0  0  0  0  0  0
    5.9635    1.4374   -0.0634 C   0  0  0  0  0  0  0  0  0  0  0  0
    6.9286    0.7839    0.2558 O   0  0  0  0  0  0  0  0  0  0  0  0
    4.5165    1.0474    0.1642 C   0  0  1  0  0  0  0  0  0  0  0  0
    3.6478    1.2168   -1.0921 C   0  0  0  0  0  0  0  0  0  0  0  0
    2.2001    0.8372   -0.7829 C   0  0  0  0  0  0  0  0  0  0  0  0
    2.0764   -0.6109   -0.2510 C   0  0  2  0  0  0  0  0  0  0  0  0
    2.9757   -0.7526    1.0087 C   0  0  0  0  0  0  0  0  0  0  0  0
    4.4258   -0.3709    0.7283 C   0  0  0  0  0  0  0  0  0  0  0  0
    2.5923   -1.5303   -1.3000 C   0  0  0  0  0  0  0  0  0  0  0  0
    2.9954   -2.2464   -2.1156 N   0  0  0  0  0  0  0  0  0  0  0  0
    0.6359   -1.0361    0.0766 C   0  0  0  0  0  0  0  0  0  0  0  0
    0.3859   -2.3766    0.3501 C   0  0  0  0  0  0  0  0  0  0  0  0
   -0.8831   -2.8139    0.7279 C   0  0  0  0  0  0  0  0  0  0  0  0
   -1.9333   -1.9108    0.8246 C   0  0  0  0  0  0  0  0  0  0  0  0
   -3.2057   -2.2260    1.1782 O   0  0  0  0  0  0  0  0  0  0  0  0
   -3.4783   -3.5685    1.5134 C   0  0  0  0  0  0  0  0  0  0  0  0
   -1.6989   -0.5542    0.5269 C   0  0  0  0  0  0  0  0  0  0  0  0
   -0.4266   -0.1328    0.1661 C   0  0  0  0  0  0  0  0  0  0  0  0
   -2.7188    0.3489    0.6569 O   0  0  0  0  0  0  0  0  0  0  0  0
   -3.6895    0.3514   -0.3998 C   0  0  0  0  0  0  0  0  0  0  0  0
   -4.9709    0.9062    0.2016 C   0  0  0  0  0  0  0  0  0  0  0  0
   -4.6673    2.4051    0.3479 C   0  0  0  0  0  0  0  0  0  0  0  0
   -3.6937    2.7476   -0.8099 C   0  0  0  0  0  0  0  0  0  0  0  0
   -3.2821    1.3929   -1.4385 C   0  0  0  0  0  0  0  0  0  0  0  0
    7.0421    2.8033   -0.7343 H   0  0  0  0  0  0  0  0  0  0  0  0
    4.1345    1.7526    0.9207 H   0  0  0  0  0  0  0  0  0  0  0  0
    3.7045    2.2538   -1.4357 H   0  0  0  0  0  0  0  0  0  0  0  0
    4.0373    0.5882   -1.9028 H   0  0  0  0  0  0  0  0  0  0  0  0
    1.8203    1.5184   -0.0098 H   0  0  0  0  0  0  0  0  0  0  0  0
    1.5691    0.9603   -1.6698 H   0  0  0  0  0  0  0  0  0  0  0  0
    2.9073   -1.7759    1.3947 H   0  0  0  0  0  0  0  0  0  0  0  0
    2.5603   -0.0969    1.7834 H   0  0  0  0  0  0  0  0  0  0  0  0
    4.8691   -1.0738    0.0134 H   0  0  0  0  0  0  0  0  0  0  0  0
    5.0266   -0.4417    1.6397 H   0  0  0  0  0  0  0  0  0  0  0  0
    1.1858   -3.1100    0.2607 H   0  0  0  0  0  0  0  0  0  0  0  0
   -1.0395   -3.8649    0.9393 H   0  0  0  0  0  0  0  0  0  0  0  0
   -4.5344   -3.6025    1.7837 H   0  0  0  0  0  0  0  0  0  0  0  0
   -2.8725   -3.8992    2.3671 H   0  0  0  0  0  0  0  0  0  0  0  0
   -3.2976   -4.2373    0.6619 H   0  0  0  0  0  0  0  0  0  0  0  0
   -0.2838    0.9230   -0.0487 H   0  0  0  0  0  0  0  0  0  0  0  0
   -3.8025   -0.6576   -0.8118 H   0  0  0  0  0  0  0  0  0  0  0  0
   -5.8036    0.7390   -0.4952 H   0  0  0  0  0  0  0  0  0  0  0  0
   -5.2100    0.4051    1.1447 H   0  0  0  0  0  0  0  0  0  0  0  0
   -5.5777    3.0123    0.3200 H   0  0  0  0  0  0  0  0  0  0  0  0
   -4.1829    2.5945    1.3089 H   0  0  0  0  0  0  0  0  0  0  0  0
   -4.1648    3.3929   -1.5584 H   0  0  0  0  0  0  0  0  0  0  0  0
   -2.8223    3.2854   -0.4269 H   0  0  0  0  0  0  0  0  0  0  0  0
   -3.8343    1.2115   -2.3682 H   0  0  0  0  0  0  0  0  0  0  0  0
   -2.2133    1.3287   -1.6708 H   0  0  0  0  0  0  0  0  0  0  0  0
  1  2  1  0  0  0  0
  2  4  1  0  0  0  0
  2  3  2  0  0  0  0
  4  9  1  0  0  0  0
  4 27  1  1  0  0  0
  5  6  1  0  0  0  0
  5  4  1  0  0  0  0
  6  7  1  0  0  0  0
  6 30  1  0  0  0  0
  7 10  1  6  0  0  0
  7 12  1  0  0  0  0
  7  8  1  0  0  0  0
  8 32  1  0  0  0  0
  8 33  1  0  0  0  0
  9  8  1  0  0  0  0
  9 35  1  0  0  0  0
 11 10  3  0  0  0  0
 12 19  2  0  0  0  0
 12 13  1  0  0  0  0
 13 14  2  0  0  0  0
 14 15  1  0  0  0  0
 14 37  1  0  0  0  0
 15 16  1  0  0  0  0
 16 17  1  0  0  0  0
 17 38  1  0  0  0  0
 17 39  1  0  0  0  0
 18 20  1  0  0  0  0
 18 15  2  0  0  0  0
 19 18  1  0  0  0  0
 21 22  1  0  0  0  0
 21 20  1  0  0  0  0
 22 23  1  0  0  0  0
 22 44  1  0  0  0  0
 23 46  1  0  0  0  0
 24 48  1  0  0  0  0
 24 23  1  0  0  0  0
 25 24  1  0  0  0  0
 25 21  1  0  0  0  0
 26  1  1  0  0  0  0
 28  5  1  0  0  0  0
 29  5  1  0  0  0  0
 31  6  1  0  0  0  0
 34  9  1  0  0  0  0
 36 13  1  0  0  0  0
 40 17  1  0  0  0  0
 41 19  1  0  0  0  0
 42 21  1  0  0  0  0
 43 22  1  0  0  0  0
 45 23  1  0  0  0  0
 47 24  1  0  0  0  0
 49 25  1  0  0  0  0
 50 25  1  0  0  0  0
M  END
