omegapdb_1gs5_22.xyz
 OpenBabel12161914463D

 24 23  0  0  1  0  0  0  0  0999 V2000
   -0.4426   -0.6178   -0.4141 C   0  0  2  0  0  0  0  0  0  0  0  0
   -1.2034   -1.3724    0.6952 C   0  0  0  0  0  0  0  0  0  0  0  0
   -2.2568   -1.0232    1.1480 O   0  0  0  0  0  0  0  0  0  0  0  0
   -0.6043   -2.5043    1.1361 O   0  0  0  0  0  0  0  0  0  0  0  0
    0.8269    0.0929    0.0852 C   0  0  0  0  0  0  0  0  0  0  0  0
    1.8906   -0.8316    0.6646 C   0  0  0  0  0  0  0  0  0  0  0  0
    3.1933   -0.0971    0.8759 C   0  0  0  0  0  0  0  0  0  0  0  0
    3.4222    1.0462    0.5639 O   0  0  0  0  0  0  0  0  0  0  0  0
    4.1144   -0.8868    1.4620 O   0  0  0  0  0  0  0  0  0  0  0  0
   -1.3305    0.2890   -1.1145 N   0  0  0  0  0  0  0  0  0  0  0  0
   -1.8113    1.4619   -0.5864 C   0  0  0  0  0  0  0  0  0  0  0  0
   -1.3056    2.0316    0.3642 O   0  0  0  0  0  0  0  0  0  0  0  0
   -3.0304    2.0012   -1.3118 C   0  0  0  0  0  0  0  0  0  0  0  0
   -0.1404   -1.3649   -1.1628 H   0  0  0  0  0  0  0  0  0  0  0  0
    0.1990   -2.6820    0.6281 H   0  0  0  0  0  0  0  0  0  0  0  0
    1.2519    0.6271   -0.7686 H   0  0  0  0  0  0  0  0  0  0  0  0
    0.5442    0.8551    0.8117 H   0  0  0  0  0  0  0  0  0  0  0  0
    2.1128   -1.6738   -0.0066 H   0  0  0  0  0  0  0  0  0  0  0  0
    1.5915   -1.2668    1.6271 H   0  0  0  0  0  0  0  0  0  0  0  0
    4.9145   -0.3441    1.5561 H   0  0  0  0  0  0  0  0  0  0  0  0
   -1.9235   -0.1481   -1.8042 H   0  0  0  0  0  0  0  0  0  0  0  0
   -3.9152    1.4054   -1.0583 H   0  0  0  0  0  0  0  0  0  0  0  0
   -3.1985    3.0300   -0.9920 H   0  0  0  0  0  0  0  0  0  0  0  0
   -2.8990    1.9722   -2.3986 H   0  0  0  0  0  0  0  0  0  0  0  0
  1 14  1  6  0  0  0
  1  5  1  0  0  0  0
  1  2  1  0  0  0  0
  2  4  1  0  0  0  0
  2  3  2  0  0  0  0
  5  6  1  0  0  0  0
  5 17  1  0  0  0  0
  6  7  1  0  0  0  0
  6 19  1  0  0  0  0
  7  9  1  0  0  0  0
  8  7  2  0  0  0  0
  9 20  1  0  0  0  0
 10 11  1  0  0  0  0
 10  1  1  0  0  0  0
 11 12  2  0  0  0  0
 13 22  1  0  0  0  0
 13 23  1  0  0  0  0
 13 11  1  0  0  0  0
 15  4  1  0  0  0  0
 16  5  1  0  0  0  0
 18  6  1  0  0  0  0
 21 10  1  0  0  0  0
 24 13  1  0  0  0  0
M  END
