omegapdb_1v2k_00.xyz
 OpenBabel12161914463D

 61 65  0  0  0  0  0  0  0  0999 V2000
    7.8283    2.8007   -1.4068 N   0  0  0  0  0  0  0  0  0  0  0  0
    7.4330    1.8165   -2.2161 C   0  0  0  0  0  0  0  0  0  0  0  0
    6.5876    0.7803   -1.8508 C   0  0  0  0  0  0  0  0  0  0  0  0
    6.0929    0.7225   -0.5377 C   0  0  0  0  0  0  0  0  0  0  0  0
    6.5127    1.7503    0.3239 C   0  0  0  0  0  0  0  0  0  0  0  0
    7.3570    2.7399   -0.1610 C   0  0  0  0  0  0  0  0  0  0  0  0
    5.2784   -0.3326   -0.1290 N   0  0  0  0  0  0  0  0  0  0  0  0
    4.8212   -0.3863    1.2540 C   0  0  0  0  0  0  0  0  0  0  0  0
    3.5864    0.4938    1.4919 C   0  0  0  0  0  0  0  0  0  0  0  0
    2.4439    0.1396    0.5278 C   0  0  0  0  0  0  0  0  0  0  0  0
    2.9588    0.0617   -0.9257 C   0  0  0  0  0  0  0  0  0  0  0  0
    4.2240   -0.8024   -1.0225 C   0  0  0  0  0  0  0  0  0  0  0  0
    1.7631   -1.1683    0.9512 C   0  0  0  0  0  0  0  0  0  0  0  0
    2.2348   -1.8942    1.8157 O   0  0  0  0  0  0  0  0  0  0  0  0
    0.5975   -1.5096    0.3026 N   0  0  0  0  0  0  0  0  0  0  0  0
   -0.2759   -0.5877   -0.4224 C   0  0  0  0  0  0  0  0  0  0  0  0
   -1.5285   -0.2842    0.4095 C   0  0  0  0  0  0  0  0  0  0  0  0
   -2.2162   -1.5044    0.8440 N   0  0  0  0  0  0  0  0  0  0  0  0
   -1.3105   -2.4297    1.5382 C   0  0  0  0  0  0  0  0  0  0  0  0
   -0.0743   -2.7490    0.6967 C   0  0  0  0  0  0  0  0  0  0  0  0
   -3.2368   -2.2440   -0.2802 S   0  0  0  0  0  0  0  0  0  0  0  0
   -3.8788   -3.3469    0.4188 O   0  0  0  0  0  0  0  0  0  0  0  0
   -2.5301   -2.4937   -1.5329 O   0  0  0  0  0  0  0  0  0  0  0  0
   -4.4289   -0.9665   -0.5780 C   0  0  0  0  0  0  0  0  0  0  0  0
   -5.2403   -0.5634    0.4478 C   0  0  0  0  0  0  0  0  0  0  0  0
   -6.1951    0.4669    0.2236 C   0  0  0  0  0  0  0  0  0  0  0  0
   -6.2939    1.0535   -1.0639 C   0  0  0  0  0  0  0  0  0  0  0  0
   -5.4293    0.6016   -2.1002 C   0  0  0  0  0  0  0  0  0  0  0  0
   -4.5146   -0.3897   -1.8663 C   0  0  0  0  0  0  0  0  0  0  0  0
   -7.2561    2.0744   -1.2930 C   0  0  0  0  0  0  0  0  0  0  0  0
   -8.0712    2.4820   -0.2742 C   0  0  0  0  0  0  0  0  0  0  0  0
   -7.9791    1.9136    1.0196 C   0  0  0  0  0  0  0  0  0  0  0  0
   -7.0580    0.9282    1.2524 C   0  0  0  0  0  0  0  0  0  0  0  0
   -9.2576    3.7278   -0.5510 Cl  0  0  0  0  0  0  0  0  0  0  0  0
    7.8166    1.8534   -3.2358 H   0  0  0  0  0  0  0  0  0  0  0  0
    6.3469    0.0095   -2.5755 H   0  0  0  0  0  0  0  0  0  0  0  0
    6.1824    1.8024    1.3544 H   0  0  0  0  0  0  0  0  0  0  0  0
    7.6783    3.5380    0.5084 H   0  0  0  0  0  0  0  0  0  0  0  0
    5.6460   -0.1154    1.9185 H   0  0  0  0  0  0  0  0  0  0  0  0
    4.5597   -1.4252    1.4729 H   0  0  0  0  0  0  0  0  0  0  0  0
    3.8555    1.5477    1.3409 H   0  0  0  0  0  0  0  0  0  0  0  0
    3.2454    0.3820    2.5259 H   0  0  0  0  0  0  0  0  0  0  0  0
    1.6864    0.9314    0.5971 H   0  0  0  0  0  0  0  0  0  0  0  0
    2.1903   -0.3518   -1.5862 H   0  0  0  0  0  0  0  0  0  0  0  0
    3.1858    1.0737   -1.2828 H   0  0  0  0  0  0  0  0  0  0  0  0
    4.5905   -0.8320   -2.0502 H   0  0  0  0  0  0  0  0  0  0  0  0
    3.9918   -1.8355   -0.7362 H   0  0  0  0  0  0  0  0  0  0  0  0
   -0.5863   -1.0719   -1.3546 H   0  0  0  0  0  0  0  0  0  0  0  0
    0.2429    0.3386   -0.6728 H   0  0  0  0  0  0  0  0  0  0  0  0
   -1.2520    0.2511    1.3260 H   0  0  0  0  0  0  0  0  0  0  0  0
   -2.2261    0.3522   -0.1435 H   0  0  0  0  0  0  0  0  0  0  0  0
   -1.0103   -1.9352    2.4697 H   0  0  0  0  0  0  0  0  0  0  0  0
   -1.8707   -3.3342    1.7907 H   0  0  0  0  0  0  0  0  0  0  0  0
   -0.3842   -3.2822   -0.2098 H   0  0  0  0  0  0  0  0  0  0  0  0
    0.6385   -3.3558    1.2543 H   0  0  0  0  0  0  0  0  0  0  0  0
   -5.1651   -1.0284    1.4267 H   0  0  0  0  0  0  0  0  0  0  0  0
   -5.5047    1.0573   -3.0832 H   0  0  0  0  0  0  0  0  0  0  0  0
   -3.8466   -0.7448   -2.6444 H   0  0  0  0  0  0  0  0  0  0  0  0
   -7.3376    2.5260   -2.2777 H   0  0  0  0  0  0  0  0  0  0  0  0
   -8.6429    2.2659    1.8033 H   0  0  0  0  0  0  0  0  0  0  0  0
   -6.9749    0.4830    2.2418 H   0  0  0  0  0  0  0  0  0  0  0  0
  1  6  2  0  0  0  0
  2  3  2  0  0  0  0
  2  1  1  0  0  0  0
  3  4  1  0  0  0  0
  4  7  1  0  0  0  0
  4  5  2  0  0  0  0
  5 37  1  0  0  0  0
  6  5  1  0  0  0  0
  6 38  1  0  0  0  0
  7  8  1  0  0  0  0
  8 40  1  0  0  0  0
  8  9  1  0  0  0  0
  8 39  1  0  0  0  0
  9 42  1  0  0  0  0
 10 43  1  0  0  0  0
 10 13  1  0  0  0  0
 10  9  1  0  0  0  0
 11 10  1  0  0  0  0
 12 11  1  0  0  0  0
 12 47  1  0  0  0  0
 12  7  1  0  0  0  0
 13 14  2  0  0  0  0
 15 20  1  0  0  0  0
 15 13  1  0  0  0  0
 16 15  1  0  0  0  0
 16 17  1  0  0  0  0
 17 18  1  0  0  0  0
 17 50  1  0  0  0  0
 18 19  1  0  0  0  0
 19 53  1  0  0  0  0
 19 52  1  0  0  0  0
 20 55  1  0  0  0  0
 20 19  1  0  0  0  0
 21 22  2  0  0  0  0
 21 18  1  0  0  0  0
 23 21  2  0  0  0  0
 24 21  1  0  0  0  0
 24 25  2  0  0  0  0
 25 56  1  0  0  0  0
 26 25  1  0  0  0  0
 26 33  2  0  0  0  0
 27 26  1  0  0  0  0
 28 29  2  0  0  0  0
 28 27  1  0  0  0  0
 29 24  1  0  0  0  0
 30 27  2  0  0  0  0
 30 31  1  0  0  0  0
 31 32  2  0  0  0  0
 32 33  1  0  0  0  0
 32 60  1  0  0  0  0
 33 61  1  0  0  0  0
 34 31  1  0  0  0  0
 35  2  1  0  0  0  0
 36  3  1  0  0  0  0
 41  9  1  0  0  0  0
 44 11  1  0  0  0  0
 45 11  1  0  0  0  0
 46 12  1  0  0  0  0
 48 16  1  0  0  0  0
 49 16  1  0  0  0  0
 51 17  1  0  0  0  0
 54 20  1  0  0  0  0
 57 28  1  0  0  0  0
 58 29  1  0  0  0  0
 59 30  1  0  0  0  0
M  END
