omegapdb_2byh_14.xyz
 OpenBabel12161914463D

 40 42  0  0  0  0  0  0  0  0999 V2000
    6.8305    0.7858    2.0840 O   0  0  0  0  0  0  0  0  0  0  0  0
    5.7571    1.3505    2.1768 C   0  0  0  0  0  0  0  0  0  0  0  0
    5.6440    2.7030    2.8463 C   0  0  0  0  0  0  0  0  0  0  0  0
    4.5190    0.7200    1.6286 C   0  0  0  0  0  0  0  0  0  0  0  0
    3.2631    1.3215    1.7091 C   0  0  0  0  0  0  0  0  0  0  0  0
    2.1300    0.7131    1.1865 C   0  0  0  0  0  0  0  0  0  0  0  0
    2.2510   -0.5312    0.5618 C   0  0  0  0  0  0  0  0  0  0  0  0
    3.5077   -1.1455    0.4811 C   0  0  0  0  0  0  0  0  0  0  0  0
    4.6268   -0.5269    1.0067 C   0  0  0  0  0  0  0  0  0  0  0  0
    1.1613   -1.2182   -0.0011 N   0  0  0  0  0  0  0  0  0  0  0  0
   -0.1590   -0.8392   -0.0633 C   0  0  0  0  0  0  0  0  0  0  0  0
   -0.5699    0.2255    0.3724 O   0  0  0  0  0  0  0  0  0  0  0  0
   -1.0478   -1.8451   -0.6997 C   0  0  0  0  0  0  0  0  0  0  0  0
   -0.7775   -3.2136   -0.9755 C   0  0  0  0  0  0  0  0  0  0  0  0
   -1.8440   -3.8545   -1.4170 N   0  0  0  0  0  0  0  0  0  0  0  0
   -2.8078   -2.9225   -1.4240 N   0  0  0  0  0  0  0  0  0  0  0  0
   -2.3974   -1.6899   -1.0371 C   0  0  0  0  0  0  0  0  0  0  0  0
   -3.2746   -0.5143   -1.1124 C   0  0  0  0  0  0  0  0  0  0  0  0
   -2.7862    0.6924   -1.6172 C   0  0  0  0  0  0  0  0  0  0  0  0
   -3.6113    1.7818   -1.8242 C   0  0  0  0  0  0  0  0  0  0  0  0
   -2.9763    3.2618   -2.4577 Cl  0  0  0  0  0  0  0  0  0  0  0  0
   -4.9764    1.6928   -1.5237 C   0  0  0  0  0  0  0  0  0  0  0  0
   -5.7536    2.7739   -1.7488 O   0  0  0  0  0  0  0  0  0  0  0  0
   -5.4809    0.5033   -1.0084 C   0  0  0  0  0  0  0  0  0  0  0  0
   -4.6419   -0.5762   -0.7830 C   0  0  0  0  0  0  0  0  0  0  0  0
   -5.2236   -1.7004   -0.2716 O   0  0  0  0  0  0  0  0  0  0  0  0
    6.6355    3.0092    3.1833 H   0  0  0  0  0  0  0  0  0  0  0  0
    5.2462    3.4480    2.1480 H   0  0  0  0  0  0  0  0  0  0  0  0
    4.9622    2.6544    3.7028 H   0  0  0  0  0  0  0  0  0  0  0  0
    3.1544    2.2918    2.1880 H   0  0  0  0  0  0  0  0  0  0  0  0
    1.1634    1.1901    1.2577 H   0  0  0  0  0  0  0  0  0  0  0  0
    3.6048   -2.1174    0.0021 H   0  0  0  0  0  0  0  0  0  0  0  0
    5.6044   -0.9946    0.9442 H   0  0  0  0  0  0  0  0  0  0  0  0
    1.3947   -2.0969   -0.4370 H   0  0  0  0  0  0  0  0  0  0  0  0
    0.1400   -3.7780   -0.8546 H   0  0  0  0  0  0  0  0  0  0  0  0
   -3.7232   -3.1652   -1.7771 H   0  0  0  0  0  0  0  0  0  0  0  0
   -1.7335    0.7863   -1.8542 H   0  0  0  0  0  0  0  0  0  0  0  0
   -6.6614    2.5684   -1.4904 H   0  0  0  0  0  0  0  0  0  0  0  0
   -6.5376    0.4004   -0.7671 H   0  0  0  0  0  0  0  0  0  0  0  0
   -4.6121   -2.1444    0.3312 H   0  0  0  0  0  0  0  0  0  0  0  0
  1  2  2  0  0  0  0
  2  3  1  0  0  0  0
  3 27  1  0  0  0  0
  3 29  1  0  0  0  0
  4  5  1  0  0  0  0
  4  2  1  0  0  0  0
  5 30  1  0  0  0  0
  6 31  1  0  0  0  0
  6  5  2  0  0  0  0
  7  6  1  0  0  0  0
  8  7  2  0  0  0  0
  8  9  1  0  0  0  0
  9  4  2  0  0  0  0
 10  7  1  0  0  0  0
 11 10  1  0  0  0  0
 11 12  2  0  0  0  0
 13 11  1  0  0  0  0
 14 35  1  0  0  0  0
 14 13  1  0  0  0  0
 15 14  2  0  0  0  0
 16 15  1  0  0  0  0
 16 17  1  0  0  0  0
 17 13  2  0  0  0  0
 18 17  1  0  0  0  0
 18 25  2  0  0  0  0
 19 18  1  0  0  0  0
 20 19  2  0  0  0  0
 20 22  1  0  0  0  0
 21 20  1  0  0  0  0
 22 24  2  0  0  0  0
 23 22  1  0  0  0  0
 23 38  1  0  0  0  0
 24 25  1  0  0  0  0
 24 39  1  0  0  0  0
 25 26  1  0  0  0  0
 26 40  1  0  0  0  0
 28  3  1  0  0  0  0
 32  8  1  0  0  0  0
 33  9  1  0  0  0  0
 34 10  1  0  0  0  0
 36 16  1  0  0  0  0
 37 19  1  0  0  0  0
M  END
