omegapdb_1qxw_32.xyz
 OpenBabel12161914463D

 36 36  0  0  1  0  0  0  0  0999 V2000
    4.5276    1.6013    0.5221 C   0  0  0  0  0  0  0  0  0  0  0  0
    4.3645    0.2567   -0.1315 C   0  0  0  0  0  0  0  0  0  0  0  0
    3.2499    0.8366    0.6867 C   0  0  0  0  0  0  0  0  0  0  0  0
    2.0984    1.3186   -0.0222 N   0  0  0  0  0  0  0  0  0  0  0  0
    1.2813    0.3022   -0.6631 C   0  0  0  0  0  0  0  0  0  0  0  0
    0.4329   -0.5903    0.2580 C   0  0  0  0  0  0  0  0  0  0  0  0
   -0.5130   -1.5154   -0.5543 C   0  0  1  0  0  0  0  0  0  0  0  0
   -1.2914   -2.4172    0.2896 N   0  0  0  0  0  0  0  0  0  0  0  0
   -1.4411   -0.8075   -1.5525 C   0  0  0  0  0  0  0  0  0  0  0  0
   -2.3261    0.3500   -1.0786 C   0  0  0  0  0  0  0  0  0  0  0  0
   -3.3521    0.0044    0.0012 C   0  0  0  0  0  0  0  0  0  0  0  0
   -4.4336    1.0737    0.1341 C   0  0  0  0  0  0  0  0  0  0  0  0
    1.3235   -1.3918    1.0184 O   0  0  0  0  0  0  0  0  0  0  0  0
   -0.3464    0.1902    1.1540 O   0  0  0  0  0  0  0  0  0  0  0  0
    5.1853    1.6958    1.3817 H   0  0  0  0  0  0  0  0  0  0  0  0
    4.4968    2.4680   -0.1307 H   0  0  0  0  0  0  0  0  0  0  0  0
    4.9100   -0.5963    0.2658 H   0  0  0  0  0  0  0  0  0  0  0  0
    4.2222    0.2420   -1.2094 H   0  0  0  0  0  0  0  0  0  0  0  0
    3.0773    0.3792    1.6636 H   0  0  0  0  0  0  0  0  0  0  0  0
    1.5357    1.9222    0.5679 H   0  0  0  0  0  0  0  0  0  0  0  0
    0.6337    0.8163   -1.3838 H   0  0  0  0  0  0  0  0  0  0  0  0
    1.9493   -0.3523   -1.2295 H   0  0  0  0  0  0  0  0  0  0  0  0
    0.1468   -2.1512   -1.1569 H   0  0  0  0  0  0  0  0  0  0  0  0
   -1.6978   -1.9101    1.0686 H   0  0  0  0  0  0  0  0  0  0  0  0
   -0.7159   -3.1632    0.6660 H   0  0  0  0  0  0  0  0  0  0  0  0
   -0.8425   -0.4633   -2.4078 H   0  0  0  0  0  0  0  0  0  0  0  0
   -2.0919   -1.5992   -1.9468 H   0  0  0  0  0  0  0  0  0  0  0  0
   -2.8742    0.7006   -1.9642 H   0  0  0  0  0  0  0  0  0  0  0  0
   -1.7136    1.1968   -0.7483 H   0  0  0  0  0  0  0  0  0  0  0  0
   -3.8124   -0.9641   -0.2421 H   0  0  0  0  0  0  0  0  0  0  0  0
   -2.8568   -0.1147    0.9685 H   0  0  0  0  0  0  0  0  0  0  0  0
   -5.1707    0.8044    0.8977 H   0  0  0  0  0  0  0  0  0  0  0  0
   -4.9701    1.2184   -0.8110 H   0  0  0  0  0  0  0  0  0  0  0  0
   -3.9962    2.0377    0.4194 H   0  0  0  0  0  0  0  0  0  0  0  0
    0.7985   -1.7371    1.7522 H   0  0  0  0  0  0  0  0  0  0  0  0
    0.2124    0.3586    1.9243 H   0  0  0  0  0  0  0  0  0  0  0  0
  1  3  1  0  0  0  0
  1 15  1  0  0  0  0
  2 17  1  0  0  0  0
  2  1  1  0  0  0  0
  2  3  1  0  0  0  0
  3 19  1  0  0  0  0
  4 20  1  0  0  0  0
  4  3  1  0  0  0  0
  5  4  1  0  0  0  0
  5  6  1  0  0  0  0
  6 13  1  0  0  0  0
  6 14  1  0  0  0  0
  7 23  1  6  0  0  0
  7  6  1  0  0  0  0
  7  8  1  0  0  0  0
  8 25  1  0  0  0  0
  8 24  1  0  0  0  0
  9 10  1  0  0  0  0
  9  7  1  0  0  0  0
 10 29  1  0  0  0  0
 10 11  1  0  0  0  0
 11 12  1  0  0  0  0
 11 31  1  0  0  0  0
 12 34  1  0  0  0  0
 12 32  1  0  0  0  0
 13 35  1  0  0  0  0
 14 36  1  0  0  0  0
 16  1  1  0  0  0  0
 18  2  1  0  0  0  0
 21  5  1  0  0  0  0
 22  5  1  0  0  0  0
 26  9  1  0  0  0  0
 27  9  1  0  0  0  0
 28 10  1  0  0  0  0
 30 11  1  0  0  0  0
 33 12  1  0  0  0  0
M  END
