omegacsd_DIAVER_03.xyz
 OpenBabel12161914463D

 35 36  0  0  0  0  0  0  0  0999 V2000
   -3.7300    0.7682   -0.7820 N   0  0  0  0  0  0  0  0  0  0  0  0
   -4.1720   -0.4848   -0.9736 C   0  0  0  0  0  0  0  0  0  0  0  0
   -3.7178   -1.5946   -0.3827 N   0  0  0  0  0  0  0  0  0  0  0  0
   -2.7389   -1.4365    0.5051 C   0  0  0  0  0  0  0  0  0  0  0  0
   -2.1767   -0.1777    0.7995 C   0  0  0  0  0  0  0  0  0  0  0  0
   -2.7401    0.8768    0.1018 C   0  0  0  0  0  0  0  0  0  0  0  0
   -0.9730    0.0141    1.6918 C   0  0  0  0  0  0  0  0  0  0  0  0
    0.3413    0.0074    0.9289 C   0  0  0  0  0  0  0  0  0  0  0  0
    1.0745    1.1905    0.7803 C   0  0  0  0  0  0  0  0  0  0  0  0
    2.2611    1.2184    0.0624 C   0  0  0  0  0  0  0  0  0  0  0  0
    2.7510    0.0243   -0.5188 C   0  0  0  0  0  0  0  0  0  0  0  0
    2.0239   -1.1464   -0.3649 C   0  0  0  0  0  0  0  0  0  0  0  0
    0.8249   -1.1559    0.3510 C   0  0  0  0  0  0  0  0  0  0  0  0
    3.9217    0.1269   -1.1947 O   0  0  0  0  0  0  0  0  0  0  0  0
    4.4544   -1.0549   -1.7506 C   0  0  0  0  0  0  0  0  0  0  0  0
    3.0182    2.3269   -0.1313 O   0  0  0  0  0  0  0  0  0  0  0  0
    2.5507    3.5305    0.4333 C   0  0  0  0  0  0  0  0  0  0  0  0
   -2.2628   -2.5939    1.0875 N   0  0  0  0  0  0  0  0  0  0  0  0
   -5.2096   -0.6429   -1.8428 N   0  0  0  0  0  0  0  0  0  0  0  0
   -2.3719    1.8919    0.2650 H   0  0  0  0  0  0  0  0  0  0  0  0
   -0.9463   -0.7446    2.4858 H   0  0  0  0  0  0  0  0  0  0  0  0
   -1.0749    0.9734    2.2113 H   0  0  0  0  0  0  0  0  0  0  0  0
    0.7064    2.0983    1.2468 H   0  0  0  0  0  0  0  0  0  0  0  0
    2.3818   -2.0716   -0.8036 H   0  0  0  0  0  0  0  0  0  0  0  0
    0.2811   -2.0910    0.4559 H   0  0  0  0  0  0  0  0  0  0  0  0
    5.3982   -0.7676   -2.2158 H   0  0  0  0  0  0  0  0  0  0  0  0
    4.6444   -1.8113   -0.9774 H   0  0  0  0  0  0  0  0  0  0  0  0
    3.7860   -1.4779   -2.5127 H   0  0  0  0  0  0  0  0  0  0  0  0
    1.5686    3.8063    0.0286 H   0  0  0  0  0  0  0  0  0  0  0  0
    3.2804    4.2954    0.1633 H   0  0  0  0  0  0  0  0  0  0  0  0
    2.4839    3.4599    1.5265 H   0  0  0  0  0  0  0  0  0  0  0  0
   -2.8740   -3.3821    0.9116 H   0  0  0  0  0  0  0  0  0  0  0  0
   -1.9816   -2.5200    2.0562 H   0  0  0  0  0  0  0  0  0  0  0  0
   -5.3967    0.1238   -2.4695 H   0  0  0  0  0  0  0  0  0  0  0  0
   -5.3861   -1.5797   -2.1707 H   0  0  0  0  0  0  0  0  0  0  0  0
  1  6  1  0  0  0  0
  2  1  2  0  0  0  0
  2  3  1  0  0  0  0
  3  4  2  0  0  0  0
  4  5  1  0  0  0  0
  4 18  1  0  0  0  0
  5  7  1  0  0  0  0
  6 20  1  0  0  0  0
  6  5  2  0  0  0  0
  7 22  1  0  0  0  0
  7 21  1  0  0  0  0
  8  7  1  0  0  0  0
  9  8  1  0  0  0  0
  9 23  1  0  0  0  0
 10  9  2  0  0  0  0
 11 12  2  0  0  0  0
 11 10  1  0  0  0  0
 12 13  1  0  0  0  0
 13 25  1  0  0  0  0
 13  8  2  0  0  0  0
 14 11  1  0  0  0  0
 15 14  1  0  0  0  0
 15 27  1  0  0  0  0
 16 10  1  0  0  0  0
 16 17  1  0  0  0  0
 17 31  1  0  0  0  0
 18 33  1  0  0  0  0
 19  2  1  0  0  0  0
 24 12  1  0  0  0  0
 26 15  1  0  0  0  0
 28 15  1  0  0  0  0
 29 17  1  0  0  0  0
 30 17  1  0  0  0  0
 32 18  1  0  0  0  0
 34 19  1  0  0  0  0
 35 19  1  0  0  0  0
M  END
