omegapdb_1xom_14.xyz
 OpenBabel12161914463D

 50 52  0  0  1  0  0  0  0  0999 V2000
    6.3028    2.5521   -0.5496 O   0  0  0  0  0  0  0  0  0  0  0  0
    6.0639    1.2200   -0.4502 C   0  0  0  0  0  0  0  0  0  0  0  0
    6.9818    0.4667   -0.2611 O   0  0  0  0  0  0  0  0  0  0  0  0
    4.6053    0.7887   -0.6004 C   0  0  1  0  0  0  0  0  0  0  0  0
    4.4878   -0.7376   -0.5702 C   0  0  0  0  0  0  0  0  0  0  0  0
    3.0367   -1.1912   -0.7221 C   0  0  0  0  0  0  0  0  0  0  0  0
    2.0984   -0.5506    0.3386 C   0  0  2  0  0  0  0  0  0  0  0  0
    2.2489    0.9871    0.2648 C   0  0  0  0  0  0  0  0  0  0  0  0
    3.6949    1.4369    0.4588 C   0  0  0  0  0  0  0  0  0  0  0  0
    2.5375   -0.9865    1.6905 C   0  0  0  0  0  0  0  0  0  0  0  0
    2.8647   -1.3178    2.7505 N   0  0  0  0  0  0  0  0  0  0  0  0
    0.6513   -1.0336    0.1412 C   0  0  0  0  0  0  0  0  0  0  0  0
    0.3321   -2.3522    0.4493 C   0  0  0  0  0  0  0  0  0  0  0  0
   -0.9512   -2.8549    0.2294 C   0  0  0  0  0  0  0  0  0  0  0  0
   -1.9472   -2.0377   -0.2937 C   0  0  0  0  0  0  0  0  0  0  0  0
   -3.2240   -2.4278   -0.5433 O   0  0  0  0  0  0  0  0  0  0  0  0
   -3.5490   -3.7817   -0.3150 C   0  0  0  0  0  0  0  0  0  0  0  0
   -1.6369   -0.7000   -0.5977 C   0  0  0  0  0  0  0  0  0  0  0  0
   -0.3547   -0.2185   -0.3817 C   0  0  0  0  0  0  0  0  0  0  0  0
   -2.5895    0.1247   -1.1407 O   0  0  0  0  0  0  0  0  0  0  0  0
   -3.5198    0.6488   -0.1892 C   0  0  0  0  0  0  0  0  0  0  0  0
   -4.4939    1.5827   -0.9016 C   0  0  0  0  0  0  0  0  0  0  0  0
   -5.0152    2.5477    0.1900 C   0  0  0  0  0  0  0  0  0  0  0  0
   -4.0681    2.3583    1.4049 C   0  0  0  0  0  0  0  0  0  0  0  0
   -2.8803    1.5525    0.8644 C   0  0  0  0  0  0  0  0  0  0  0  0
    5.4794    3.0330   -0.7113 H   0  0  0  0  0  0  0  0  0  0  0  0
    4.2697    1.1470   -1.5881 H   0  0  0  0  0  0  0  0  0  0  0  0
    4.9058   -1.1062    0.3728 H   0  0  0  0  0  0  0  0  0  0  0  0
    5.1057   -1.1679   -1.3648 H   0  0  0  0  0  0  0  0  0  0  0  0
    2.6585   -0.9024   -1.7099 H   0  0  0  0  0  0  0  0  0  0  0  0
    2.9621   -2.2836   -0.6655 H   0  0  0  0  0  0  0  0  0  0  0  0
    1.9150    1.3152   -0.7279 H   0  0  0  0  0  0  0  0  0  0  0  0
    1.5937    1.4551    1.0066 H   0  0  0  0  0  0  0  0  0  0  0  0
    3.7399    2.5321    0.3904 H   0  0  0  0  0  0  0  0  0  0  0  0
    4.0482    1.1694    1.4615 H   0  0  0  0  0  0  0  0  0  0  0  0
    1.0870   -3.0103    0.8781 H   0  0  0  0  0  0  0  0  0  0  0  0
   -1.1657   -3.8876    0.4779 H   0  0  0  0  0  0  0  0  0  0  0  0
   -3.4213   -4.0519    0.7415 H   0  0  0  0  0  0  0  0  0  0  0  0
   -2.9350   -4.4492   -0.9338 H   0  0  0  0  0  0  0  0  0  0  0  0
   -4.5976   -3.8911   -0.5935 H   0  0  0  0  0  0  0  0  0  0  0  0
   -0.1704    0.8249   -0.6213 H   0  0  0  0  0  0  0  0  0  0  0  0
   -4.0528   -0.1800    0.2960 H   0  0  0  0  0  0  0  0  0  0  0  0
   -5.2869    1.0351   -1.4212 H   0  0  0  0  0  0  0  0  0  0  0  0
   -3.9231    2.1300   -1.6612 H   0  0  0  0  0  0  0  0  0  0  0  0
   -6.0501    2.3242    0.4704 H   0  0  0  0  0  0  0  0  0  0  0  0
   -4.9984    3.5808   -0.1723 H   0  0  0  0  0  0  0  0  0  0  0  0
   -3.7611    3.3098    1.8510 H   0  0  0  0  0  0  0  0  0  0  0  0
   -4.5787    1.7894    2.1911 H   0  0  0  0  0  0  0  0  0  0  0  0
   -2.3351    0.9926    1.6335 H   0  0  0  0  0  0  0  0  0  0  0  0
   -2.1650    2.2159    0.3596 H   0  0  0  0  0  0  0  0  0  0  0  0
  1  2  1  0  0  0  0
  2  3  2  0  0  0  0
  4 27  1  6  0  0  0
  4  5  1  0  0  0  0
  4  2  1  0  0  0  0
  4  9  1  0  0  0  0
  5 28  1  0  0  0  0
  6 31  1  0  0  0  0
  6  5  1  0  0  0  0
  6  7  1  0  0  0  0
  7 10  1  1  0  0  0
  8  7  1  0  0  0  0
  8  9  1  0  0  0  0
  8 33  1  0  0  0  0
  9 35  1  0  0  0  0
 10 11  3  0  0  0  0
 12  7  1  0  0  0  0
 12 13  2  0  0  0  0
 13 36  1  0  0  0  0
 14 13  1  0  0  0  0
 14 37  1  0  0  0  0
 15 14  2  0  0  0  0
 16 17  1  0  0  0  0
 16 15  1  0  0  0  0
 17 38  1  0  0  0  0
 18 19  2  0  0  0  0
 18 15  1  0  0  0  0
 19 12  1  0  0  0  0
 20 18  1  0  0  0  0
 20 21  1  0  0  0  0
 21 42  1  0  0  0  0
 21 25  1  0  0  0  0
 22 21  1  0  0  0  0
 22 23  1  0  0  0  0
 23 45  1  0  0  0  0
 23 24  1  0  0  0  0
 24 47  1  0  0  0  0
 24 48  1  0  0  0  0
 25 24  1  0  0  0  0
 25 49  1  0  0  0  0
 26  1  1  0  0  0  0
 29  5  1  0  0  0  0
 30  6  1  0  0  0  0
 32  8  1  0  0  0  0
 34  9  1  0  0  0  0
 39 17  1  0  0  0  0
 40 17  1  0  0  0  0
 41 19  1  0  0  0  0
 43 22  1  0  0  0  0
 44 22  1  0  0  0  0
 46 23  1  0  0  0  0
 50 25  1  0  0  0  0
M  END
