omegapdb_1qxw_04.xyz
 OpenBabel12161914463D

 36 36  0  0  1  0  0  0  0  0999 V2000
    4.2629    1.5366   -0.7001 C   0  0  0  0  0  0  0  0  0  0  0  0
    5.1614    0.9216    0.3405 C   0  0  0  0  0  0  0  0  0  0  0  0
    3.7071    1.1175    0.6370 C   0  0  0  0  0  0  0  0  0  0  0  0
    2.8400   -0.0143    0.7901 N   0  0  0  0  0  0  0  0  0  0  0  0
    1.5797    0.0794    0.0648 C   0  0  0  0  0  0  0  0  0  0  0  0
    0.7321   -1.1161    0.4878 C   0  0  0  0  0  0  0  0  0  0  0  0
   -0.6328   -1.2030   -0.2166 C   0  0  1  0  0  0  0  0  0  0  0  0
   -1.1758   -2.5007    0.1897 N   0  0  0  0  0  0  0  0  0  0  0  0
   -1.5413   -0.0006    0.0555 C   0  0  0  0  0  0  0  0  0  0  0  0
   -2.9067   -0.1235   -0.6172 C   0  0  0  0  0  0  0  0  0  0  0  0
   -3.7921    1.1021   -0.4019 C   0  0  0  0  0  0  0  0  0  0  0  0
   -5.1571    0.9631   -1.0682 C   0  0  0  0  0  0  0  0  0  0  0  0
    0.4891   -1.0221    1.8784 O   0  0  0  0  0  0  0  0  0  0  0  0
    1.4683   -2.2774    0.1742 O   0  0  0  0  0  0  0  0  0  0  0  0
    4.0124    0.9362   -1.5726 H   0  0  0  0  0  0  0  0  0  0  0  0
    4.3537    2.6006   -0.8971 H   0  0  0  0  0  0  0  0  0  0  0  0
    5.5087   -0.0939    0.1674 H   0  0  0  0  0  0  0  0  0  0  0  0
    5.8875    1.5525    0.8457 H   0  0  0  0  0  0  0  0  0  0  0  0
    3.4688    1.9285    1.3236 H   0  0  0  0  0  0  0  0  0  0  0  0
    3.3096   -0.8771    0.5303 H   0  0  0  0  0  0  0  0  0  0  0  0
    1.0693    1.0041    0.3527 H   0  0  0  0  0  0  0  0  0  0  0  0
    1.7135    0.0872   -1.0290 H   0  0  0  0  0  0  0  0  0  0  0  0
   -0.4323   -1.2559   -1.2964 H   0  0  0  0  0  0  0  0  0  0  0  0
   -1.9561   -2.7794   -0.3962 H   0  0  0  0  0  0  0  0  0  0  0  0
   -1.5059   -2.4387    1.1504 H   0  0  0  0  0  0  0  0  0  0  0  0
   -1.0489    0.9097   -0.3126 H   0  0  0  0  0  0  0  0  0  0  0  0
   -1.6674    0.1253    1.1394 H   0  0  0  0  0  0  0  0  0  0  0  0
   -2.7722   -0.2905   -1.6967 H   0  0  0  0  0  0  0  0  0  0  0  0
   -3.4285   -1.0112   -0.2332 H   0  0  0  0  0  0  0  0  0  0  0  0
   -3.9213    1.2682    0.6762 H   0  0  0  0  0  0  0  0  0  0  0  0
   -3.2805    1.9921   -0.7918 H   0  0  0  0  0  0  0  0  0  0  0  0
   -5.7760    1.8521   -0.9117 H   0  0  0  0  0  0  0  0  0  0  0  0
   -5.7036    0.1016   -0.6686 H   0  0  0  0  0  0  0  0  0  0  0  0
   -5.0507    0.8140   -2.1487 H   0  0  0  0  0  0  0  0  0  0  0  0
    1.3716   -0.8971    2.2652 H   0  0  0  0  0  0  0  0  0  0  0  0
    0.8132   -2.9910    0.2968 H   0  0  0  0  0  0  0  0  0  0  0  0
  1  2  1  0  0  0  0
  1  3  1  0  0  0  0
  2  3  1  0  0  0  0
  2 18  1  0  0  0  0
  3  4  1  0  0  0  0
  3 19  1  0  0  0  0
  5 21  1  0  0  0  0
  5  6  1  0  0  0  0
  5  4  1  0  0  0  0
  6 13  1  0  0  0  0
  7 23  1  6  0  0  0
  7  9  1  0  0  0  0
  7  8  1  0  0  0  0
  7  6  1  0  0  0  0
  8 25  1  0  0  0  0
  9 27  1  0  0  0  0
 10 11  1  0  0  0  0
 10 29  1  0  0  0  0
 10  9  1  0  0  0  0
 11 30  1  0  0  0  0
 12 32  1  0  0  0  0
 12 33  1  0  0  0  0
 12 11  1  0  0  0  0
 13 35  1  0  0  0  0
 14 36  1  0  0  0  0
 14  6  1  0  0  0  0
 15  1  1  0  0  0  0
 16  1  1  0  0  0  0
 17  2  1  0  0  0  0
 20  4  1  0  0  0  0
 22  5  1  0  0  0  0
 24  8  1  0  0  0  0
 26  9  1  0  0  0  0
 28 10  1  0  0  0  0
 31 11  1  0  0  0  0
 34 12  1  0  0  0  0
M  END
