omegapdb_1v2k_01.xyz
 OpenBabel12161914463D

 61 65  0  0  0  0  0  0  0  0999 V2000
    7.8954    2.8237    0.4285 N   0  0  0  0  0  0  0  0  0  0  0  0
    7.3798    2.1042    1.4278 C   0  0  0  0  0  0  0  0  0  0  0  0
    6.4152    1.1204    1.2776 C   0  0  0  0  0  0  0  0  0  0  0  0
    5.9354    0.8222   -0.0070 C   0  0  0  0  0  0  0  0  0  0  0  0
    6.4782    1.5668   -1.0649 C   0  0  0  0  0  0  0  0  0  0  0  0
    7.4304    2.5384   -0.7875 C   0  0  0  0  0  0  0  0  0  0  0  0
    4.9896   -0.1910   -0.1846 N   0  0  0  0  0  0  0  0  0  0  0  0
    4.6962   -0.5926   -1.5577 C   0  0  0  0  0  0  0  0  0  0  0  0
    3.9434   -1.9210   -1.6022 C   0  0  0  0  0  0  0  0  0  0  0  0
    2.7001   -1.9452   -0.7091 C   0  0  0  0  0  0  0  0  0  0  0  0
    3.0871   -1.4639    0.6988 C   0  0  0  0  0  0  0  0  0  0  0  0
    3.7876   -0.1128    0.6476 C   0  0  0  0  0  0  0  0  0  0  0  0
    1.5676   -1.1022   -1.3071 C   0  0  0  0  0  0  0  0  0  0  0  0
    1.7788   -0.2778   -2.1871 O   0  0  0  0  0  0  0  0  0  0  0  0
    0.3022   -1.2951   -0.8165 N   0  0  0  0  0  0  0  0  0  0  0  0
   -0.7764   -0.4325   -1.2849 C   0  0  0  0  0  0  0  0  0  0  0  0
   -1.4015    0.3022   -0.1023 C   0  0  0  0  0  0  0  0  0  0  0  0
   -1.8653   -0.6927    0.8799 N   0  0  0  0  0  0  0  0  0  0  0  0
   -0.7648   -1.5433    1.3713 C   0  0  0  0  0  0  0  0  0  0  0  0
   -0.1317   -2.2626    0.1814 C   0  0  0  0  0  0  0  0  0  0  0  0
   -2.8006   -0.0542    2.1327 S   0  0  0  0  0  0  0  0  0  0  0  0
   -2.1153    1.0974    2.7036 O   0  0  0  0  0  0  0  0  0  0  0  0
   -3.1895   -1.1756    2.9749 O   0  0  0  0  0  0  0  0  0  0  0  0
   -4.2259    0.5323    1.2613 C   0  0  0  0  0  0  0  0  0  0  0  0
   -4.9737   -0.3571    0.5392 C   0  0  0  0  0  0  0  0  0  0  0  0
   -6.1180    0.1034   -0.1686 C   0  0  0  0  0  0  0  0  0  0  0  0
   -6.4668    1.4764   -0.1045 C   0  0  0  0  0  0  0  0  0  0  0  0
   -5.6624    2.3624    0.6665 C   0  0  0  0  0  0  0  0  0  0  0  0
   -4.5618    1.9039    1.3392 C   0  0  0  0  0  0  0  0  0  0  0  0
   -7.6129    1.9369   -0.8077 C   0  0  0  0  0  0  0  0  0  0  0  0
   -8.3638    1.0574   -1.5367 C   0  0  0  0  0  0  0  0  0  0  0  0
   -8.0280   -0.3164   -1.6123 C   0  0  0  0  0  0  0  0  0  0  0  0
   -6.9268   -0.7719   -0.9391 C   0  0  0  0  0  0  0  0  0  0  0  0
   -9.7700    1.6186   -2.3994 Cl  0  0  0  0  0  0  0  0  0  0  0  0
    7.7543    2.3352    2.4243 H   0  0  0  0  0  0  0  0  0  0  0  0
    6.0620    0.5685    2.1433 H   0  0  0  0  0  0  0  0  0  0  0  0
    6.1556    1.4156   -2.0886 H   0  0  0  0  0  0  0  0  0  0  0  0
    7.8472    3.1224   -1.6084 H   0  0  0  0  0  0  0  0  0  0  0  0
    5.6480   -0.7218   -2.0837 H   0  0  0  0  0  0  0  0  0  0  0  0
    4.1151    0.1786   -2.0823 H   0  0  0  0  0  0  0  0  0  0  0  0
    4.6218   -2.7156   -1.2663 H   0  0  0  0  0  0  0  0  0  0  0  0
    3.6699   -2.1421   -2.6390 H   0  0  0  0  0  0  0  0  0  0  0  0
    2.3451   -2.9817   -0.6519 H   0  0  0  0  0  0  0  0  0  0  0  0
    3.7667   -2.1977    1.1471 H   0  0  0  0  0  0  0  0  0  0  0  0
    2.2109   -1.3922    1.3533 H   0  0  0  0  0  0  0  0  0  0  0  0
    4.0759    0.1885    1.6563 H   0  0  0  0  0  0  0  0  0  0  0  0
    3.1030    0.6640    0.2666 H   0  0  0  0  0  0  0  0  0  0  0  0
   -1.5447   -1.0497   -1.7721 H   0  0  0  0  0  0  0  0  0  0  0  0
   -0.3640    0.2621   -2.0176 H   0  0  0  0  0  0  0  0  0  0  0  0
   -0.6758    0.9817    0.3636 H   0  0  0  0  0  0  0  0  0  0  0  0
   -2.2573    0.8937   -0.4465 H   0  0  0  0  0  0  0  0  0  0  0  0
   -1.1849   -2.2643    2.0774 H   0  0  0  0  0  0  0  0  0  0  0  0
   -0.0204   -0.9352    1.9069 H   0  0  0  0  0  0  0  0  0  0  0  0
   -0.8895   -2.9202   -0.2681 H   0  0  0  0  0  0  0  0  0  0  0  0
    0.6945   -2.8927    0.5128 H   0  0  0  0  0  0  0  0  0  0  0  0
   -4.7002   -1.4082    0.5069 H   0  0  0  0  0  0  0  0  0  0  0  0
   -5.9375    3.4117    0.7125 H   0  0  0  0  0  0  0  0  0  0  0  0
   -3.9376    2.5627    1.9350 H   0  0  0  0  0  0  0  0  0  0  0  0
   -7.8866    2.9872   -0.7611 H   0  0  0  0  0  0  0  0  0  0  0  0
   -8.6481   -0.9846   -2.2020 H   0  0  0  0  0  0  0  0  0  0  0  0
   -6.6551   -1.8243   -0.9860 H   0  0  0  0  0  0  0  0  0  0  0  0
  1  2  2  0  0  0  0
  2 35  1  0  0  0  0
  3  2  1  0  0  0  0
  3 36  1  0  0  0  0
  4  3  2  0  0  0  0
  5  6  2  0  0  0  0
  5  4  1  0  0  0  0
  6  1  1  0  0  0  0
  7  4  1  0  0  0  0
  7 12  1  0  0  0  0
  8  7  1  0  0  0  0
  9  8  1  0  0  0  0
  9 41  1  0  0  0  0
  9 10  1  0  0  0  0
 10 43  1  0  0  0  0
 10 11  1  0  0  0  0
 11 44  1  0  0  0  0
 11 45  1  0  0  0  0
 12 11  1  0  0  0  0
 12 46  1  0  0  0  0
 13 15  1  0  0  0  0
 13 10  1  0  0  0  0
 14 13  2  0  0  0  0
 15 20  1  0  0  0  0
 16 15  1  0  0  0  0
 16 17  1  0  0  0  0
 17 50  1  0  0  0  0
 17 18  1  0  0  0  0
 18 19  1  0  0  0  0
 18 21  1  0  0  0  0
 19 53  1  0  0  0  0
 19 52  1  0  0  0  0
 20 55  1  0  0  0  0
 20 19  1  0  0  0  0
 21 22  2  0  0  0  0
 21 23  2  0  0  0  0
 24 29  1  0  0  0  0
 24 21  1  0  0  0  0
 25 24  2  0  0  0  0
 26 27  1  0  0  0  0
 26 25  1  0  0  0  0
 27 28  1  0  0  0  0
 28 57  1  0  0  0  0
 28 29  2  0  0  0  0
 29 58  1  0  0  0  0
 30 59  1  0  0  0  0
 30 27  2  0  0  0  0
 31 30  1  0  0  0  0
 32 31  2  0  0  0  0
 32 33  1  0  0  0  0
 33 26  2  0  0  0  0
 34 31  1  0  0  0  0
 37  5  1  0  0  0  0
 38  6  1  0  0  0  0
 39  8  1  0  0  0  0
 40  8  1  0  0  0  0
 42  9  1  0  0  0  0
 47 12  1  0  0  0  0
 48 16  1  0  0  0  0
 49 16  1  0  0  0  0
 51 17  1  0  0  0  0
 54 20  1  0  0  0  0
 56 25  1  0  0  0  0
 60 32  1  0  0  0  0
 61 33  1  0  0  0  0
M  END
