omegacsd_GALSEM_03.xyz
 OpenBabel12161914463D

 39 40  0  0  0  0  0  0  0  0999 V2000
    1.0770    0.6185    1.2718 S   0  0  0  0  0  0  0  0  0  0  0  0
    0.5501   -0.0155    2.4645 O   0  0  0  0  0  0  0  0  0  0  0  0
    0.4515    1.8307    0.7402 O   0  0  0  0  0  0  0  0  0  0  0  0
    2.6776    1.0591    1.4856 N   0  0  0  0  0  0  0  0  0  0  0  0
    3.5892    0.4234    2.3272 C   0  0  0  0  0  0  0  0  0  0  0  0
    3.5104   -0.7470    2.6272 O   0  0  0  0  0  0  0  0  0  0  0  0
    4.6931    1.3458    2.8055 C   0  0  0  0  0  0  0  0  0  0  0  0
    5.6938    0.6203    3.6963 C   0  0  0  0  0  0  0  0  0  0  0  0
    1.1311   -0.5840   -0.0331 C   0  0  0  0  0  0  0  0  0  0  0  0
   -0.0030   -0.7370   -0.8585 C   0  0  0  0  0  0  0  0  0  0  0  0
   -1.1054    0.0681   -0.6876 N   0  0  0  0  0  0  0  0  0  0  0  0
   -2.4147   -0.1912   -1.0941 C   0  0  0  0  0  0  0  0  0  0  0  0
   -3.2080    0.8970   -1.4674 C   0  0  0  0  0  0  0  0  0  0  0  0
   -4.5255    0.6930   -1.8532 C   0  0  0  0  0  0  0  0  0  0  0  0
   -5.0808   -0.5843   -1.8459 C   0  0  0  0  0  0  0  0  0  0  0  0
   -4.2960   -1.6607   -1.4499 C   0  0  0  0  0  0  0  0  0  0  0  0
   -2.9699   -1.4744   -1.0757 C   0  0  0  0  0  0  0  0  0  0  0  0
   -5.3760    1.8484   -2.2979 C   0  0  0  0  0  0  0  0  0  0  0  0
   -4.7787    3.0337   -2.0887 F   0  0  0  0  0  0  0  0  0  0  0  0
   -6.5568    1.8681   -1.6490 F   0  0  0  0  0  0  0  0  0  0  0  0
   -5.6632    1.7698   -3.6120 F   0  0  0  0  0  0  0  0  0  0  0  0
    0.0787   -1.7098   -1.8591 C   0  0  0  0  0  0  0  0  0  0  0  0
    1.2252   -2.4869   -1.9546 C   0  0  0  0  0  0  0  0  0  0  0  0
    2.2753   -2.3875   -1.1367 N   0  0  0  0  0  0  0  0  0  0  0  0
    2.2084   -1.4523   -0.1906 C   0  0  0  0  0  0  0  0  0  0  0  0
    2.8327    2.0347    1.2583 H   0  0  0  0  0  0  0  0  0  0  0  0
    4.2332    2.1847    3.3475 H   0  0  0  0  0  0  0  0  0  0  0  0
    5.1945    1.7731    1.9260 H   0  0  0  0  0  0  0  0  0  0  0  0
    5.1911    0.1838    4.5641 H   0  0  0  0  0  0  0  0  0  0  0  0
    6.1742   -0.1972    3.1518 H   0  0  0  0  0  0  0  0  0  0  0  0
    6.4699    1.3076    4.0473 H   0  0  0  0  0  0  0  0  0  0  0  0
   -0.9124    0.9685   -0.2515 H   0  0  0  0  0  0  0  0  0  0  0  0
   -2.7875    1.9009   -1.4544 H   0  0  0  0  0  0  0  0  0  0  0  0
   -6.1153   -0.7228   -2.1405 H   0  0  0  0  0  0  0  0  0  0  0  0
   -4.7169   -2.6609   -1.4352 H   0  0  0  0  0  0  0  0  0  0  0  0
   -2.3684   -2.3219   -0.7568 H   0  0  0  0  0  0  0  0  0  0  0  0
   -0.7341   -1.8470   -2.5658 H   0  0  0  0  0  0  0  0  0  0  0  0
    1.2963   -3.2462   -2.7307 H   0  0  0  0  0  0  0  0  0  0  0  0
    3.0592   -1.4022    0.4849 H   0  0  0  0  0  0  0  0  0  0  0  0
  1  4  1  0  0  0  0
  1  2  2  0  0  0  0
  3  1  2  0  0  0  0
  4  5  1  0  0  0  0
  5  6  2  0  0  0  0
  5  7  1  0  0  0  0
  7 27  1  0  0  0  0
  7  8  1  0  0  0  0
  8 31  1  0  0  0  0
  8 29  1  0  0  0  0
  9  1  1  0  0  0  0
 10 11  1  0  0  0  0
 10  9  2  0  0  0  0
 11 32  1  0  0  0  0
 12 17  1  0  0  0  0
 12 11  1  0  0  0  0
 13 33  1  0  0  0  0
 13 12  2  0  0  0  0
 14 15  2  0  0  0  0
 14 13  1  0  0  0  0
 15 16  1  0  0  0  0
 16 35  1  0  0  0  0
 16 17  2  0  0  0  0
 17 36  1  0  0  0  0
 18 19  1  0  0  0  0
 18 14  1  0  0  0  0
 18 20  1  0  0  0  0
 21 18  1  0  0  0  0
 22 10  1  0  0  0  0
 23 22  2  0  0  0  0
 23 24  1  0  0  0  0
 24 25  2  0  0  0  0
 25  9  1  0  0  0  0
 25 39  1  0  0  0  0
 26  4  1  0  0  0  0
 28  7  1  0  0  0  0
 30  8  1  0  0  0  0
 34 15  1  0  0  0  0
 37 22  1  0  0  0  0
 38 23  1  0  0  0  0
M  END
