omegapdb_1xom_11.xyz
 OpenBabel12161914463D

 50 52  0  0  1  0  0  0  0  0999 V2000
    6.8172    1.3020   -0.9655 O   0  0  0  0  0  0  0  0  0  0  0  0
    6.1178    0.3254   -0.3497 C   0  0  0  0  0  0  0  0  0  0  0  0
    6.5686   -0.2888    0.5880 O   0  0  0  0  0  0  0  0  0  0  0  0
    4.7414    0.1379   -0.9609 C   0  0  1  0  0  0  0  0  0  0  0  0
    4.0361   -1.1057   -0.3922 C   0  0  0  0  0  0  0  0  0  0  0  0
    3.1955   -0.7444    0.8331 C   0  0  0  0  0  0  0  0  0  0  0  0
    2.0135    0.2032    0.4757 C   0  0  2  0  0  0  0  0  0  0  0  0
    2.4121    1.1086   -0.7354 C   0  0  0  0  0  0  0  0  0  0  0  0
    3.9056    1.4222   -0.7363 C   0  0  0  0  0  0  0  0  0  0  0  0
    1.8030    1.0831    1.6542 C   0  0  0  0  0  0  0  0  0  0  0  0
    1.6524    1.7803    2.5665 N   0  0  0  0  0  0  0  0  0  0  0  0
    0.6899   -0.5230    0.1622 C   0  0  0  0  0  0  0  0  0  0  0  0
    0.6194   -1.8811   -0.1248 C   0  0  0  0  0  0  0  0  0  0  0  0
   -0.5953   -2.4925   -0.4398 C   0  0  0  0  0  0  0  0  0  0  0  0
   -1.7664   -1.7488   -0.4807 C   0  0  0  0  0  0  0  0  0  0  0  0
   -3.0030   -2.2444   -0.7493 O   0  0  0  0  0  0  0  0  0  0  0  0
   -3.1052   -3.6255   -1.0199 C   0  0  0  0  0  0  0  0  0  0  0  0
   -1.7062   -0.3674   -0.2165 C   0  0  0  0  0  0  0  0  0  0  0  0
   -0.4915    0.2244    0.0950 C   0  0  0  0  0  0  0  0  0  0  0  0
   -2.8393    0.3871   -0.3207 O   0  0  0  0  0  0  0  0  0  0  0  0
   -3.7606    0.2954    0.7751 C   0  0  0  0  0  0  0  0  0  0  0  0
   -5.1324    0.5781    0.1873 C   0  0  0  0  0  0  0  0  0  0  0  0
   -5.0904    2.0916   -0.0796 C   0  0  0  0  0  0  0  0  0  0  0  0
   -4.1138    2.6800    0.9731 C   0  0  0  0  0  0  0  0  0  0  0  0
   -3.5051    1.4671    1.7144 C   0  0  0  0  0  0  0  0  0  0  0  0
    7.6684    1.3582   -0.4997 H   0  0  0  0  0  0  0  0  0  0  0  0
    4.8963    0.0028   -2.0380 H   0  0  0  0  0  0  0  0  0  0  0  0
    3.3880   -1.5348   -1.1669 H   0  0  0  0  0  0  0  0  0  0  0  0
    4.7822   -1.8611   -0.1311 H   0  0  0  0  0  0  0  0  0  0  0  0
    2.8123   -1.6378    1.3357 H   0  0  0  0  0  0  0  0  0  0  0  0
    3.8452   -0.2464    1.5602 H   0  0  0  0  0  0  0  0  0  0  0  0
    1.8171    2.0277   -0.7167 H   0  0  0  0  0  0  0  0  0  0  0  0
    2.1415    0.5868   -1.6600 H   0  0  0  0  0  0  0  0  0  0  0  0
    4.1805    1.8771    0.2229 H   0  0  0  0  0  0  0  0  0  0  0  0
    4.1472    2.1556   -1.5095 H   0  0  0  0  0  0  0  0  0  0  0  0
    1.5067   -2.5083   -0.1052 H   0  0  0  0  0  0  0  0  0  0  0  0
   -0.6167   -3.5584   -0.6371 H   0  0  0  0  0  0  0  0  0  0  0  0
   -2.7800   -4.2249   -0.1590 H   0  0  0  0  0  0  0  0  0  0  0  0
   -2.5088   -3.9056   -1.8984 H   0  0  0  0  0  0  0  0  0  0  0  0
   -4.1603   -3.8183   -1.2208 H   0  0  0  0  0  0  0  0  0  0  0  0
   -0.4782    1.2936    0.2897 H   0  0  0  0  0  0  0  0  0  0  0  0
   -3.6820   -0.6837    1.2592 H   0  0  0  0  0  0  0  0  0  0  0  0
   -5.9112    0.3235    0.9187 H   0  0  0  0  0  0  0  0  0  0  0  0
   -5.2987   -0.0244   -0.7106 H   0  0  0  0  0  0  0  0  0  0  0  0
   -4.7114    2.2837   -1.0859 H   0  0  0  0  0  0  0  0  0  0  0  0
   -6.0866    2.5419   -0.0221 H   0  0  0  0  0  0  0  0  0  0  0  0
   -3.3351    3.2668    0.4790 H   0  0  0  0  0  0  0  0  0  0  0  0
   -4.6225    3.3512    1.6717 H   0  0  0  0  0  0  0  0  0  0  0  0
   -4.0200    1.2894    2.6662 H   0  0  0  0  0  0  0  0  0  0  0  0
   -2.4369    1.5808    1.9304 H   0  0  0  0  0  0  0  0  0  0  0  0
  1 26  1  0  0  0  0
  1  2  1  0  0  0  0
  2  3  2  0  0  0  0
  4 27  1  6  0  0  0
  4  9  1  0  0  0  0
  4  5  1  0  0  0  0
  4  2  1  0  0  0  0
  5 29  1  0  0  0  0
  5  6  1  0  0  0  0
  6 30  1  0  0  0  0
  6 31  1  0  0  0  0
  7  6  1  0  0  0  0
  7 10  1  1  0  0  0
  8 32  1  0  0  0  0
  8  7  1  0  0  0  0
  9  8  1  0  0  0  0
  9 34  1  0  0  0  0
 10 11  3  0  0  0  0
 12  7  1  0  0  0  0
 13 36  1  0  0  0  0
 13 12  2  0  0  0  0
 14 13  1  0  0  0  0
 15 14  2  0  0  0  0
 15 18  1  0  0  0  0
 16 15  1  0  0  0  0
 17 16  1  0  0  0  0
 17 38  1  0  0  0  0
 18 19  2  0  0  0  0
 19 12  1  0  0  0  0
 19 41  1  0  0  0  0
 20 18  1  0  0  0  0
 20 21  1  0  0  0  0
 21 42  1  0  0  0  0
 21 25  1  0  0  0  0
 22 21  1  0  0  0  0
 22 43  1  0  0  0  0
 23 46  1  0  0  0  0
 23 22  1  0  0  0  0
 23 24  1  0  0  0  0
 24 48  1  0  0  0  0
 24 25  1  0  0  0  0
 25 50  1  0  0  0  0
 25 49  1  0  0  0  0
 28  5  1  0  0  0  0
 33  8  1  0  0  0  0
 35  9  1  0  0  0  0
 37 14  1  0  0  0  0
 39 17  1  0  0  0  0
 40 17  1  0  0  0  0
 44 22  1  0  0  0  0
 45 23  1  0  0  0  0
 47 24  1  0  0  0  0
M  END
