omegapdb_1gs5_15.xyz
 OpenBabel12161914463D

 24 23  0  0  1  0  0  0  0  0999 V2000
   -0.3901   -1.0861   -0.1052 C   0  0  2  0  0  0  0  0  0  0  0  0
   -1.1034   -2.3013    0.4528 C   0  0  0  0  0  0  0  0  0  0  0  0
   -0.7213   -3.4357    0.3100 O   0  0  0  0  0  0  0  0  0  0  0  0
   -2.1885   -1.9884    1.1916 O   0  0  0  0  0  0  0  0  0  0  0  0
    0.8803   -0.8451    0.7352 C   0  0  0  0  0  0  0  0  0  0  0  0
    1.7130    0.3189    0.2087 C   0  0  0  0  0  0  0  0  0  0  0  0
    3.0479    0.4316    0.9168 C   0  0  0  0  0  0  0  0  0  0  0  0
    3.4415   -0.3278    1.7601 O   0  0  0  0  0  0  0  0  0  0  0  0
    3.8093    1.4813    0.5319 O   0  0  0  0  0  0  0  0  0  0  0  0
   -1.2544    0.0704   -0.1935 N   0  0  0  0  0  0  0  0  0  0  0  0
   -1.1898    0.9069   -1.2708 C   0  0  0  0  0  0  0  0  0  0  0  0
   -0.3514    0.7640   -2.1491 O   0  0  0  0  0  0  0  0  0  0  0  0
   -2.2070    2.0280   -1.2702 C   0  0  0  0  0  0  0  0  0  0  0  0
   -0.0784   -1.3358   -1.1231 H   0  0  0  0  0  0  0  0  0  0  0  0
   -2.5371   -2.8325    1.5246 H   0  0  0  0  0  0  0  0  0  0  0  0
    1.4771   -1.7631    0.7270 H   0  0  0  0  0  0  0  0  0  0  0  0
    0.6076   -0.6617    1.7810 H   0  0  0  0  0  0  0  0  0  0  0  0
    1.1764    1.2682    0.3317 H   0  0  0  0  0  0  0  0  0  0  0  0
    1.8906    0.2180   -0.8706 H   0  0  0  0  0  0  0  0  0  0  0  0
    3.3480    1.9899   -0.1495 H   0  0  0  0  0  0  0  0  0  0  0  0
   -2.0071    0.1619    0.4725 H   0  0  0  0  0  0  0  0  0  0  0  0
   -2.1925    2.5123   -2.2471 H   0  0  0  0  0  0  0  0  0  0  0  0
   -1.9547    2.7696   -0.5040 H   0  0  0  0  0  0  0  0  0  0  0  0
   -3.2159    1.6566   -1.0609 H   0  0  0  0  0  0  0  0  0  0  0  0
  1 14  1  6  0  0  0
  1  2  1  0  0  0  0
  1  5  1  0  0  0  0
  2  4  1  0  0  0  0
  3  2  2  0  0  0  0
  4 15  1  0  0  0  0
  5 17  1  0  0  0  0
  6 18  1  0  0  0  0
  6  5  1  0  0  0  0
  6  7  1  0  0  0  0
  7  8  2  0  0  0  0
  9  7  1  0  0  0  0
 10  1  1  0  0  0  0
 10 21  1  0  0  0  0
 11 13  1  0  0  0  0
 11 10  1  0  0  0  0
 12 11  2  0  0  0  0
 13 24  1  0  0  0  0
 13 23  1  0  0  0  0
 16  5  1  0  0  0  0
 19  6  1  0  0  0  0
 20  9  1  0  0  0  0
 22 13  1  0  0  0  0
M  END
