omegacsd_CUHNEY10_06.xyz
 OpenBabel12161914463D

 44 47  0  0  1  0  0  0  0  0999 V2000
    0.0627   -5.0979   -0.8737 Cl  0  0  0  0  0  0  0  0  0  0  0  0
   -0.7096   -3.5417   -0.8155 C   0  0  0  0  0  0  0  0  0  0  0  0
   -0.4888   -2.6911    0.2535 C   0  0  0  0  0  0  0  0  0  0  0  0
   -1.0303   -1.4760    0.3291 N   0  0  0  0  0  0  0  0  0  0  0  0
   -1.8232   -1.0656   -0.6604 C   0  0  0  0  0  0  0  0  0  0  0  0
   -2.2995    0.2512   -0.5250 N   0  0  0  0  0  0  0  0  0  0  0  0
   -3.3087    0.8608   -1.2874 C   0  0  0  0  0  0  0  0  0  0  0  0
   -3.9098    0.3668   -2.2139 O   0  0  0  0  0  0  0  0  0  0  0  0
   -3.4715    2.2111   -0.6962 C   0  0  0  0  0  0  0  0  0  0  0  0
   -4.3424    3.1517   -1.0569 N   0  0  0  0  0  0  0  0  0  0  0  0
   -4.2823    4.2472   -0.3129 C   0  0  0  0  0  0  0  0  0  0  0  0
   -3.3885    4.3950    0.7595 C   0  0  0  0  0  0  0  0  0  0  0  0
   -2.5216    3.4423    1.1015 N   0  0  0  0  0  0  0  0  0  0  0  0
   -2.5772    2.3601    0.3442 C   0  0  0  0  0  0  0  0  0  0  0  0
   -1.7364    1.1325    0.4974 C   0  0  2  0  0  0  0  0  0  0  0  0
   -0.3592    1.3540    0.1741 O   0  0  0  0  0  0  0  0  0  0  0  0
    0.5331    1.2079    1.1906 C   0  0  0  0  0  0  0  0  0  0  0  0
    0.2471    1.3125    2.3634 O   0  0  0  0  0  0  0  0  0  0  0  0
    1.7796    0.9339    0.7094 N   0  0  0  0  0  0  0  0  0  0  0  0
    1.9553    0.4341   -0.6605 C   0  0  0  0  0  0  0  0  0  0  0  0
    3.3844   -0.0879   -0.8179 C   0  0  0  0  0  0  0  0  0  0  0  0
    3.7486   -1.1013    0.1664 N   0  0  0  0  0  0  0  0  0  0  0  0
    3.2765   -0.8166    1.5231 C   0  0  0  0  0  0  0  0  0  0  0  0
    2.8287    0.6333    1.6789 C   0  0  0  0  0  0  0  0  0  0  0  0
    3.4218   -2.4520   -0.2519 C   0  0  0  0  0  0  0  0  0  0  0  0
   -2.1305   -1.8720   -1.7688 C   0  0  0  0  0  0  0  0  0  0  0  0
   -1.5521   -3.1274   -1.8415 C   0  0  0  0  0  0  0  0  0  0  0  0
    0.1584   -2.9909    1.0762 H   0  0  0  0  0  0  0  0  0  0  0  0
   -4.9736    5.0480   -0.5670 H   0  0  0  0  0  0  0  0  0  0  0  0
   -3.3813    5.3054    1.3537 H   0  0  0  0  0  0  0  0  0  0  0  0
   -1.7872    0.6992    1.5021 H   0  0  0  0  0  0  0  0  0  0  0  0
    1.7692    1.2448   -1.3729 H   0  0  0  0  0  0  0  0  0  0  0  0
    1.2330   -0.3698   -0.8609 H   0  0  0  0  0  0  0  0  0  0  0  0
    3.5235   -0.5133   -1.8178 H   0  0  0  0  0  0  0  0  0  0  0  0
    4.0769    0.7625   -0.7416 H   0  0  0  0  0  0  0  0  0  0  0  0
    2.4183   -1.4624    1.7816 H   0  0  0  0  0  0  0  0  0  0  0  0
    4.0743   -1.0499    2.2422 H   0  0  0  0  0  0  0  0  0  0  0  0
    2.4097    0.8050    2.6705 H   0  0  0  0  0  0  0  0  0  0  0  0
    3.6757    1.3190    1.5468 H   0  0  0  0  0  0  0  0  0  0  0  0
    3.9781   -2.7048   -1.1613 H   0  0  0  0  0  0  0  0  0  0  0  0
    2.3470   -2.6080   -0.4563 H   0  0  0  0  0  0  0  0  0  0  0  0
    3.7217   -3.1585    0.5288 H   0  0  0  0  0  0  0  0  0  0  0  0
   -2.7975   -1.5110   -2.5388 H   0  0  0  0  0  0  0  0  0  0  0  0
   -1.7532   -3.7801   -2.6863 H   0  0  0  0  0  0  0  0  0  0  0  0
  1  2  1  0  0  0  0
  2  3  2  0  0  0  0
  3  4  1  0  0  0  0
  3 28  1  0  0  0  0
  5  6  1  0  0  0  0
  5  4  2  0  0  0  0
  6 15  1  0  0  0  0
  7  9  1  0  0  0  0
  7  6  1  0  0  0  0
  8  7  2  0  0  0  0
  9 14  1  0  0  0  0
 10  9  2  0  0  0  0
 10 11  1  0  0  0  0
 11 12  2  0  0  0  0
 12 13  1  0  0  0  0
 12 30  1  0  0  0  0
 14 15  1  0  0  0  0
 14 13  2  0  0  0  0
 15 31  1  1  0  0  0
 16 15  1  0  0  0  0
 16 17  1  0  0  0  0
 17 18  2  0  0  0  0
 19 17  1  0  0  0  0
 19 24  1  0  0  0  0
 20 19  1  0  0  0  0
 21 35  1  0  0  0  0
 21 20  1  0  0  0  0
 21 22  1  0  0  0  0
 22 23  1  0  0  0  0
 23 24  1  0  0  0  0
 23 36  1  0  0  0  0
 23 37  1  0  0  0  0
 24 38  1  0  0  0  0
 25 22  1  0  0  0  0
 25 42  1  0  0  0  0
 26  5  1  0  0  0  0
 27 26  2  0  0  0  0
 27  2  1  0  0  0  0
 29 11  1  0  0  0  0
 32 20  1  0  0  0  0
 33 20  1  0  0  0  0
 34 21  1  0  0  0  0
 39 24  1  0  0  0  0
 40 25  1  0  0  0  0
 41 25  1  0  0  0  0
 43 26  1  0  0  0  0
 44 27  1  0  0  0  0
M  END
