omegapdb_2f7p_07.xyz
 OpenBabel12161914463D

 34 35  0  0  1  0  0  0  0  0999 V2000
   -1.1284   -0.6978    0.2727 C   0  0  1  0  0  0  0  0  0  0  0  0
    0.2121   -0.1979    0.4574 N   0  0  0  0  0  0  0  0  0  0  0  0
    1.1332   -0.5076   -0.6259 C   0  0  0  0  0  0  0  0  0  0  0  0
    2.5561   -0.1212   -0.2901 C   0  0  0  0  0  0  0  0  0  0  0  0
    3.4264    0.2876   -1.2999 C   0  0  0  0  0  0  0  0  0  0  0  0
    4.7448    0.6251   -1.0099 C   0  0  0  0  0  0  0  0  0  0  0  0
    5.2084    0.5559    0.3003 C   0  0  0  0  0  0  0  0  0  0  0  0
    4.3475    0.1421    1.3131 C   0  0  0  0  0  0  0  0  0  0  0  0
    3.0303   -0.1938    1.0200 C   0  0  0  0  0  0  0  0  0  0  0  0
   -2.0371   -0.3401    1.4585 C   0  0  1  0  0  0  0  0  0  0  0  0
   -1.8907    1.0141    1.8676 O   0  0  0  0  0  0  0  0  0  0  0  0
   -3.4484   -0.5441    0.9004 C   0  0  1  0  0  0  0  0  0  0  0  0
   -4.4466    0.0753    1.6776 O   0  0  0  0  0  0  0  0  0  0  0  0
   -3.3508    0.0738   -0.5115 C   0  0  1  0  0  0  0  0  0  0  0  0
   -3.4746    1.4878   -0.3852 O   0  0  0  0  0  0  0  0  0  0  0  0
   -1.9138   -0.2103   -0.9922 C   0  0  2  0  0  0  0  0  0  0  0  0
   -1.7992   -1.4767   -2.2918 S   0  0  0  0  0  0  0  0  0  0  0  0
   -1.0755   -1.7954    0.2268 H   0  0  0  0  0  0  0  0  0  0  0  0
    0.1738    0.7990    0.6506 H   0  0  0  0  0  0  0  0  0  0  0  0
    1.0700   -1.5910   -0.8047 H   0  0  0  0  0  0  0  0  0  0  0  0
    0.8516   -0.0293   -1.5809 H   0  0  0  0  0  0  0  0  0  0  0  0
    3.0695    0.3406   -2.3270 H   0  0  0  0  0  0  0  0  0  0  0  0
    5.4111    0.9445   -1.8081 H   0  0  0  0  0  0  0  0  0  0  0  0
    6.2360    0.8232    0.5330 H   0  0  0  0  0  0  0  0  0  0  0  0
    4.7005    0.0878    2.3403 H   0  0  0  0  0  0  0  0  0  0  0  0
    2.3504   -0.5118    1.8066 H   0  0  0  0  0  0  0  0  0  0  0  0
   -1.8269   -0.9568    2.3369 H   0  0  0  0  0  0  0  0  0  0  0  0
   -2.2077    1.5644    1.1263 H   0  0  0  0  0  0  0  0  0  0  0  0
   -3.6820   -1.6112    0.8150 H   0  0  0  0  0  0  0  0  0  0  0  0
   -3.9708    0.6717    2.2790 H   0  0  0  0  0  0  0  0  0  0  0  0
   -4.1232   -0.3195   -1.1851 H   0  0  0  0  0  0  0  0  0  0  0  0
   -4.2923    1.6236    0.1207 H   0  0  0  0  0  0  0  0  0  0  0  0
   -1.5034    0.7358   -1.3579 H   0  0  0  0  0  0  0  0  0  0  0  0
   -2.3502   -0.7479   -3.2766 H   0  0  0  0  0  0  0  0  0  0  0  0
  1 16  1  6  0  0  0
  1  2  1  0  0  0  0
  2 19  1  0  0  0  0
  3  4  1  0  0  0  0
  3  2  1  0  0  0  0
  4  9  2  0  0  0  0
  5  6  2  0  0  0  0
  5  4  1  0  0  0  0
  6  7  1  0  0  0  0
  7 24  1  0  0  0  0
  7  8  2  0  0  0  0
  8 25  1  0  0  0  0
  9  8  1  0  0  0  0
  9 26  1  0  0  0  0
 10  1  1  6  0  0  0
 10 11  1  0  0  0  0
 10 27  1  0  0  0  0
 12 14  1  6  0  0  0
 12 10  1  0  0  0  0
 12 13  1  0  0  0  0
 13 30  1  0  0  0  0
 14 16  1  6  0  0  0
 14 15  1  0  0  0  0
 15 32  1  0  0  0  0
 16 33  1  6  0  0  0
 17 16  1  0  0  0  0
 18  1  1  0  0  0  0
 20  3  1  0  0  0  0
 21  3  1  0  0  0  0
 22  5  1  0  0  0  0
 23  6  1  0  0  0  0
 28 11  1  0  0  0  0
 29 12  1  0  0  0  0
 31 14  1  0  0  0  0
 34 17  1  0  0  0  0
M  END
