omegacsd_DIAVER_06.xyz
 OpenBabel12161914463D

 35 36  0  0  0  0  0  0  0  0999 V2000
   -2.7567   -0.8677   -1.7708 N   0  0  0  0  0  0  0  0  0  0  0  0
   -3.9953   -1.0224   -1.2825 C   0  0  0  0  0  0  0  0  0  0  0  0
   -4.3809   -0.8907   -0.0066 N   0  0  0  0  0  0  0  0  0  0  0  0
   -3.4283   -0.5647    0.8622 C   0  0  0  0  0  0  0  0  0  0  0  0
   -2.0738   -0.3917    0.4884 C   0  0  0  0  0  0  0  0  0  0  0  0
   -1.8287   -0.5634   -0.8598 C   0  0  0  0  0  0  0  0  0  0  0  0
   -1.0335   -0.0412    1.5337 C   0  0  0  0  0  0  0  0  0  0  0  0
    0.3943   -0.1667    1.0559 C   0  0  0  0  0  0  0  0  0  0  0  0
    1.1186    0.9579    0.6444 C   0  0  0  0  0  0  0  0  0  0  0  0
    2.4181    0.8338    0.1558 C   0  0  0  0  0  0  0  0  0  0  0  0
    3.0128   -0.4408    0.0699 C   0  0  0  0  0  0  0  0  0  0  0  0
    2.2985   -1.5493    0.4965 C   0  0  0  0  0  0  0  0  0  0  0  0
    1.0033   -1.4169    0.9888 C   0  0  0  0  0  0  0  0  0  0  0  0
    4.3044   -0.6025   -0.3552 O   0  0  0  0  0  0  0  0  0  0  0  0
    4.5238   -0.3655   -1.7389 C   0  0  0  0  0  0  0  0  0  0  0  0
    3.1941    1.8752   -0.2519 O   0  0  0  0  0  0  0  0  0  0  0  0
    2.6653    3.1758   -0.1146 C   0  0  0  0  0  0  0  0  0  0  0  0
   -3.8104   -0.4510    2.1751 N   0  0  0  0  0  0  0  0  0  0  0  0
   -4.9708   -1.3761   -2.1680 N   0  0  0  0  0  0  0  0  0  0  0  0
   -0.8162   -0.4495   -1.2463 H   0  0  0  0  0  0  0  0  0  0  0  0
   -1.2066    0.9841    1.8967 H   0  0  0  0  0  0  0  0  0  0  0  0
   -1.1752   -0.6942    2.4083 H   0  0  0  0  0  0  0  0  0  0  0  0
    0.6582    1.9389    0.7120 H   0  0  0  0  0  0  0  0  0  0  0  0
    2.7796   -2.5207    0.4364 H   0  0  0  0  0  0  0  0  0  0  0  0
    0.4623   -2.2999    1.3227 H   0  0  0  0  0  0  0  0  0  0  0  0
    5.5806   -0.5763   -1.9184 H   0  0  0  0  0  0  0  0  0  0  0  0
    4.3064    0.6734   -2.0060 H   0  0  0  0  0  0  0  0  0  0  0  0
    3.9123   -1.0406   -2.3519 H   0  0  0  0  0  0  0  0  0  0  0  0
    1.7674    3.3052   -0.7318 H   0  0  0  0  0  0  0  0  0  0  0  0
    2.4219    3.3989    0.9321 H   0  0  0  0  0  0  0  0  0  0  0  0
    3.4428    3.8599   -0.4587 H   0  0  0  0  0  0  0  0  0  0  0  0
   -4.8116   -0.4218    2.3110 H   0  0  0  0  0  0  0  0  0  0  0  0
   -3.2868    0.1722    2.7723 H   0  0  0  0  0  0  0  0  0  0  0  0
   -4.7688   -1.2179   -3.1422 H   0  0  0  0  0  0  0  0  0  0  0  0
   -5.9208   -1.2435   -1.8571 H   0  0  0  0  0  0  0  0  0  0  0  0
  1  2  2  0  0  0  0
  1  6  1  0  0  0  0
  2  3  1  0  0  0  0
  3  4  2  0  0  0  0
  4 18  1  0  0  0  0
  5  4  1  0  0  0  0
  5  7  1  0  0  0  0
  6  5  2  0  0  0  0
  7 21  1  0  0  0  0
  7 22  1  0  0  0  0
  8  7  1  0  0  0  0
  9 23  1  0  0  0  0
  9  8  2  0  0  0  0
 10  9  1  0  0  0  0
 11 10  2  0  0  0  0
 11 12  1  0  0  0  0
 12 13  2  0  0  0  0
 13  8  1  0  0  0  0
 13 25  1  0  0  0  0
 14 11  1  0  0  0  0
 15 14  1  0  0  0  0
 16 17  1  0  0  0  0
 16 10  1  0  0  0  0
 17 30  1  0  0  0  0
 18 32  1  0  0  0  0
 18 33  1  0  0  0  0
 19 35  1  0  0  0  0
 19  2  1  0  0  0  0
 20  6  1  0  0  0  0
 24 12  1  0  0  0  0
 26 15  1  0  0  0  0
 27 15  1  0  0  0  0
 28 15  1  0  0  0  0
 29 17  1  0  0  0  0
 31 17  1  0  0  0  0
 34 19  1  0  0  0  0
M  END
