omegapdb_1gs5_19.xyz
 OpenBabel12161914463D

 24 23  0  0  1  0  0  0  0  0999 V2000
   -0.5811   -0.9935    0.1043 C   0  0  2  0  0  0  0  0  0  0  0  0
   -1.4765   -1.9800    0.8467 C   0  0  0  0  0  0  0  0  0  0  0  0
   -2.5098   -1.6720    1.3793 O   0  0  0  0  0  0  0  0  0  0  0  0
   -1.0189   -3.2434    0.9055 O   0  0  0  0  0  0  0  0  0  0  0  0
    0.7037   -0.7435    0.9164 C   0  0  0  0  0  0  0  0  0  0  0  0
    1.6456    0.2344    0.2239 C   0  0  0  0  0  0  0  0  0  0  0  0
    2.9862    0.3164    0.9243 C   0  0  0  0  0  0  0  0  0  0  0  0
    3.3111   -0.3619    1.8612 O   0  0  0  0  0  0  0  0  0  0  0  0
    3.8405    1.2315    0.4119 O   0  0  0  0  0  0  0  0  0  0  0  0
   -1.3422    0.2069   -0.1341 N   0  0  0  0  0  0  0  0  0  0  0  0
   -1.2043    0.9115   -1.2962 C   0  0  0  0  0  0  0  0  0  0  0  0
   -0.3238    0.6539   -2.1041 O   0  0  0  0  0  0  0  0  0  0  0  0
   -2.1882    2.0483   -1.4714 C   0  0  0  0  0  0  0  0  0  0  0  0
   -0.2961   -1.4161   -0.8691 H   0  0  0  0  0  0  0  0  0  0  0  0
   -0.1985   -3.3246    0.3982 H   0  0  0  0  0  0  0  0  0  0  0  0
    0.4447   -0.3685    1.9124 H   0  0  0  0  0  0  0  0  0  0  0  0
    1.2283   -1.6922    1.0771 H   0  0  0  0  0  0  0  0  0  0  0  0
    1.8140   -0.0544   -0.8224 H   0  0  0  0  0  0  0  0  0  0  0  0
    1.2024    1.2371    0.1851 H   0  0  0  0  0  0  0  0  0  0  0  0
    3.4252    1.6877   -0.3332 H   0  0  0  0  0  0  0  0  0  0  0  0
   -2.1793    0.3073    0.4276 H   0  0  0  0  0  0  0  0  0  0  0  0
   -1.9293    2.8762   -0.8019 H   0  0  0  0  0  0  0  0  0  0  0  0
   -3.2125    1.7371   -1.2391 H   0  0  0  0  0  0  0  0  0  0  0  0
   -2.1409    2.4018   -2.5022 H   0  0  0  0  0  0  0  0  0  0  0  0
  1 14  1  6  0  0  0
  1  2  1  0  0  0  0
  1  5  1  0  0  0  0
  2  4  1  0  0  0  0
  2  3  2  0  0  0  0
  5 17  1  0  0  0  0
  5 16  1  0  0  0  0
  6  5  1  0  0  0  0
  6  7  1  0  0  0  0
  7  8  2  0  0  0  0
  9  7  1  0  0  0  0
 10  1  1  0  0  0  0
 10 21  1  0  0  0  0
 11 10  1  0  0  0  0
 12 11  2  0  0  0  0
 13 11  1  0  0  0  0
 13 23  1  0  0  0  0
 13 22  1  0  0  0  0
 15  4  1  0  0  0  0
 18  6  1  0  0  0  0
 19  6  1  0  0  0  0
 20  9  1  0  0  0  0
 24 13  1  0  0  0  0
M  END
