omegacsd_CEJTIU_14.xyz
 OpenBabel12161914463D

 41 42  0  0  0  0  0  0  0  0999 V2000
   -5.5336    2.1954    0.4830 C   0  0  0  0  0  0  0  0  0  0  0  0
   -5.2343    0.7814    0.6264 N   0  0  0  0  0  0  0  0  0  0  0  0
   -5.7452    0.2187    1.8583 C   0  0  0  0  0  0  0  0  0  0  0  0
   -3.9707    0.3465    0.1990 C   0  0  0  0  0  0  0  0  0  0  0  0
   -3.4623    0.7590   -1.0426 C   0  0  0  0  0  0  0  0  0  0  0  0
   -2.2299    0.3294   -1.5078 C   0  0  0  0  0  0  0  0  0  0  0  0
   -1.4477   -0.5223   -0.7300 C   0  0  0  0  0  0  0  0  0  0  0  0
   -1.9417   -0.9518    0.5002 C   0  0  0  0  0  0  0  0  0  0  0  0
   -3.1864   -0.5401    0.9524 C   0  0  0  0  0  0  0  0  0  0  0  0
   -0.1509   -0.9271   -1.1040 N   0  0  0  0  0  0  0  0  0  0  0  0
    0.3520   -0.9528   -2.3804 C   0  0  0  0  0  0  0  0  0  0  0  0
   -0.2721   -0.6716   -3.3838 O   0  0  0  0  0  0  0  0  0  0  0  0
    1.6814   -1.3929   -2.4902 N   0  0  0  0  0  0  0  0  0  0  0  0
    2.8290   -1.3435   -1.6904 C   0  0  0  0  0  0  0  0  0  0  0  0
    3.8662   -1.7742   -2.1458 O   0  0  0  0  0  0  0  0  0  0  0  0
    2.7330   -0.7606   -0.2819 C   0  0  0  0  0  0  0  0  0  0  0  0
    4.0681   -0.2930    0.2483 C   0  0  0  0  0  0  0  0  0  0  0  0
    5.0470   -1.2205    0.6032 C   0  0  0  0  0  0  0  0  0  0  0  0
    6.2635   -0.7950    1.1246 C   0  0  0  0  0  0  0  0  0  0  0  0
    6.5211    0.5647    1.2841 C   0  0  0  0  0  0  0  0  0  0  0  0
    5.5568    1.4974    0.9151 C   0  0  0  0  0  0  0  0  0  0  0  0
    4.3359    1.0654    0.4030 C   0  0  0  0  0  0  0  0  0  0  0  0
   -4.9373    2.8282    1.1615 H   0  0  0  0  0  0  0  0  0  0  0  0
   -5.3623    2.5392   -0.5396 H   0  0  0  0  0  0  0  0  0  0  0  0
   -6.5922    2.3574    0.7091 H   0  0  0  0  0  0  0  0  0  0  0  0
   -5.1559    0.5079    2.7461 H   0  0  0  0  0  0  0  0  0  0  0  0
   -6.7709    0.5679    2.0058 H   0  0  0  0  0  0  0  0  0  0  0  0
   -5.7716   -0.8740    1.7959 H   0  0  0  0  0  0  0  0  0  0  0  0
   -4.0574    1.4088   -1.6780 H   0  0  0  0  0  0  0  0  0  0  0  0
   -1.8695    0.6586   -2.4736 H   0  0  0  0  0  0  0  0  0  0  0  0
   -1.3448   -1.6213    1.1160 H   0  0  0  0  0  0  0  0  0  0  0  0
   -3.5336   -0.9008    1.9137 H   0  0  0  0  0  0  0  0  0  0  0  0
    0.3574   -1.4374   -0.4005 H   0  0  0  0  0  0  0  0  0  0  0  0
    1.9180   -1.6086   -3.4513 H   0  0  0  0  0  0  0  0  0  0  0  0
    2.3422   -1.5518    0.3778 H   0  0  0  0  0  0  0  0  0  0  0  0
    2.0177    0.0670   -0.2606 H   0  0  0  0  0  0  0  0  0  0  0  0
    4.8568   -2.2787    0.4459 H   0  0  0  0  0  0  0  0  0  0  0  0
    7.0179   -1.5271    1.4016 H   0  0  0  0  0  0  0  0  0  0  0  0
    7.4736    0.8948    1.6920 H   0  0  0  0  0  0  0  0  0  0  0  0
    5.7518    2.5613    1.0278 H   0  0  0  0  0  0  0  0  0  0  0  0
    3.5805    1.7967    0.1202 H   0  0  0  0  0  0  0  0  0  0  0  0
  1  2  1  0  0  0  0
  1 25  1  0  0  0  0
  1 23  1  0  0  0  0
  2  3  1  0  0  0  0
  3 27  1  0  0  0  0
  3 26  1  0  0  0  0
  4  2  1  0  0  0  0
  4  9  2  0  0  0  0
  5  4  1  0  0  0  0
  6  5  2  0  0  0  0
  6  7  1  0  0  0  0
  7  8  2  0  0  0  0
  8  9  1  0  0  0  0
  8 31  1  0  0  0  0
  9 32  1  0  0  0  0
 10  7  1  0  0  0  0
 10 33  1  0  0  0  0
 11 10  1  0  0  0  0
 12 11  2  0  0  0  0
 13 11  1  0  0  0  0
 13 14  1  0  0  0  0
 14 16  1  0  0  0  0
 15 14  2  0  0  0  0
 16 36  1  0  0  0  0
 16 17  1  0  0  0  0
 16 35  1  0  0  0  0
 17 22  2  0  0  0  0
 17 18  1  0  0  0  0
 18 19  2  0  0  0  0
 19 20  1  0  0  0  0
 19 38  1  0  0  0  0
 20 39  1  0  0  0  0
 21 40  1  0  0  0  0
 21 20  2  0  0  0  0
 22 21  1  0  0  0  0
 24  1  1  0  0  0  0
 28  3  1  0  0  0  0
 29  5  1  0  0  0  0
 30  6  1  0  0  0  0
 34 13  1  0  0  0  0
 37 18  1  0  0  0  0
 41 22  1  0  0  0  0
M  END
