omegacsd_FABSOQ10_04.xyz
 OpenBabel12161914463D

 45 47  0  0  1  0  0  0  0  0999 V2000
   -0.3619    0.3961    0.7283 S   0  0  0  0  0  0  0  0  0  0  0  0
   -0.9358    0.6515   -0.8817 C   0  0  0  0  0  0  0  0  0  0  0  0
   -0.2431   -0.1151   -1.7773 C   0  0  0  0  0  0  0  0  0  0  0  0
    0.7588   -0.9167   -1.1658 C   0  0  0  0  0  0  0  0  0  0  0  0
    0.8192   -0.7505    0.1864 C   0  0  0  0  0  0  0  0  0  0  0  0
    1.7494   -1.4741    1.1349 C   0  0  1  0  0  0  0  0  0  0  0  0
    1.5225   -2.8720    1.1004 O   0  0  0  0  0  0  0  0  0  0  0  0
    3.2047   -1.2244    0.7899 C   0  0  0  0  0  0  0  0  0  0  0  0
    3.7439    0.0369    1.0062 C   0  0  0  0  0  0  0  0  0  0  0  0
    5.0732    0.3166    0.7001 C   0  0  0  0  0  0  0  0  0  0  0  0
    5.8778   -0.6859    0.1603 C   0  0  0  0  0  0  0  0  0  0  0  0
    7.1843   -0.5241   -0.1788 O   0  0  0  0  0  0  0  0  0  0  0  0
    7.7566    0.7486    0.0286 C   0  0  0  0  0  0  0  0  0  0  0  0
    5.3436   -1.9597   -0.0599 C   0  0  0  0  0  0  0  0  0  0  0  0
    4.0223   -2.2231    0.2577 C   0  0  0  0  0  0  0  0  0  0  0  0
   -2.0550    1.6328   -1.1559 C   0  0  2  0  0  0  0  0  0  0  0  0
   -1.7864    2.9102   -0.6126 O   0  0  0  0  0  0  0  0  0  0  0  0
   -3.3801    1.1532   -0.6028 C   0  0  0  0  0  0  0  0  0  0  0  0
   -3.9402    1.7155    0.5374 C   0  0  0  0  0  0  0  0  0  0  0  0
   -5.1419    1.2379    1.0555 C   0  0  0  0  0  0  0  0  0  0  0  0
   -5.8026    0.1920    0.4130 C   0  0  0  0  0  0  0  0  0  0  0  0
   -6.9808   -0.3426    0.8281 O   0  0  0  0  0  0  0  0  0  0  0  0
   -7.5685    0.2009    1.9895 C   0  0  0  0  0  0  0  0  0  0  0  0
   -5.2511   -0.3731   -0.7430 C   0  0  0  0  0  0  0  0  0  0  0  0
   -4.0512    0.1070   -1.2363 C   0  0  0  0  0  0  0  0  0  0  0  0
   -0.4487   -0.1049   -2.8425 H   0  0  0  0  0  0  0  0  0  0  0  0
    1.4093   -1.5961   -1.7062 H   0  0  0  0  0  0  0  0  0  0  0  0
    1.5679   -1.0838    2.1486 H   0  0  0  0  0  0  0  0  0  0  0  0
    0.5931   -3.0216    1.3196 H   0  0  0  0  0  0  0  0  0  0  0  0
    3.1257    0.8249    1.4334 H   0  0  0  0  0  0  0  0  0  0  0  0
    5.4672    1.3090    0.8912 H   0  0  0  0  0  0  0  0  0  0  0  0
    7.7385    1.0294    1.0901 H   0  0  0  0  0  0  0  0  0  0  0  0
    8.7916    0.6726   -0.3081 H   0  0  0  0  0  0  0  0  0  0  0  0
    7.2389    1.5212   -0.5553 H   0  0  0  0  0  0  0  0  0  0  0  0
    5.9926   -2.7261   -0.4739 H   0  0  0  0  0  0  0  0  0  0  0  0
    3.6107   -3.2160    0.1020 H   0  0  0  0  0  0  0  0  0  0  0  0
   -2.1561    1.6997   -2.2541 H   0  0  0  0  0  0  0  0  0  0  0  0
   -0.8802    3.1473   -0.8528 H   0  0  0  0  0  0  0  0  0  0  0  0
   -3.4324    2.5432    1.0247 H   0  0  0  0  0  0  0  0  0  0  0  0
   -5.5517    1.6907    1.9523 H   0  0  0  0  0  0  0  0  0  0  0  0
   -7.8016    1.2659    1.8599 H   0  0  0  0  0  0  0  0  0  0  0  0
   -6.9136    0.0816    2.8624 H   0  0  0  0  0  0  0  0  0  0  0  0
   -8.4929   -0.3558    2.1499 H   0  0  0  0  0  0  0  0  0  0  0  0
   -5.7863   -1.1829   -1.2299 H   0  0  0  0  0  0  0  0  0  0  0  0
   -3.6298   -0.3362   -2.1361 H   0  0  0  0  0  0  0  0  0  0  0  0
  2  1  1  0  0  0  0
  3  4  1  0  0  0  0
  3  2  2  0  0  0  0
  4  5  2  0  0  0  0
  5  1  1  0  0  0  0
  5  6  1  0  0  0  0
  6 28  1  1  0  0  0
  7  6  1  0  0  0  0
  7 29  1  0  0  0  0
  8  9  1  0  0  0  0
  8  6  1  0  0  0  0
  9 30  1  0  0  0  0
 10 31  1  0  0  0  0
 10  9  2  0  0  0  0
 11 10  1  0  0  0  0
 12 13  1  0  0  0  0
 12 11  1  0  0  0  0
 13 32  1  0  0  0  0
 14 11  2  0  0  0  0
 14 15  1  0  0  0  0
 15  8  2  0  0  0  0
 16 37  1  6  0  0  0
 16  2  1  0  0  0  0
 16 17  1  0  0  0  0
 16 18  1  0  0  0  0
 18 19  2  0  0  0  0
 19 39  1  0  0  0  0
 19 20  1  0  0  0  0
 20 40  1  0  0  0  0
 21 22  1  0  0  0  0
 21 20  2  0  0  0  0
 22 23  1  0  0  0  0
 23 43  1  0  0  0  0
 23 42  1  0  0  0  0
 24 21  1  0  0  0  0
 25 24  2  0  0  0  0
 25 18  1  0  0  0  0
 26  3  1  0  0  0  0
 27  4  1  0  0  0  0
 33 13  1  0  0  0  0
 34 13  1  0  0  0  0
 35 14  1  0  0  0  0
 36 15  1  0  0  0  0
 38 17  1  0  0  0  0
 41 23  1  0  0  0  0
 44 24  1  0  0  0  0
 45 25  1  0  0  0  0
M  END
