omegapdb_1xom_07.xyz
 OpenBabel12161914463D

 50 52  0  0  1  0  0  0  0  0999 V2000
    6.2998    1.8836   -0.2670 O   0  0  0  0  0  0  0  0  0  0  0  0
    6.1786    0.8000   -1.0658 C   0  0  0  0  0  0  0  0  0  0  0  0
    7.1183    0.3520   -1.6778 O   0  0  0  0  0  0  0  0  0  0  0  0
    4.7852    0.2115   -1.0568 C   0  0  1  0  0  0  0  0  0  0  0  0
    4.5418   -0.5467    0.2596 C   0  0  0  0  0  0  0  0  0  0  0  0
    3.1625   -1.2029    0.2448 C   0  0  0  0  0  0  0  0  0  0  0  0
    2.0213   -0.1815    0.0147 C   0  0  2  0  0  0  0  0  0  0  0  0
    2.3081    0.5849   -1.3067 C   0  0  0  0  0  0  0  0  0  0  0  0
    3.6850    1.2487   -1.3155 C   0  0  0  0  0  0  0  0  0  0  0  0
    2.0326    0.7911    1.1395 C   0  0  0  0  0  0  0  0  0  0  0  0
    2.0179    1.5437    2.0191 N   0  0  0  0  0  0  0  0  0  0  0  0
    0.6190   -0.8187   -0.0190 C   0  0  0  0  0  0  0  0  0  0  0  0
    0.4110   -2.1908   -0.0611 C   0  0  0  0  0  0  0  0  0  0  0  0
   -0.8771   -2.7273   -0.1214 C   0  0  0  0  0  0  0  0  0  0  0  0
   -1.9853   -1.8918   -0.1390 C   0  0  0  0  0  0  0  0  0  0  0  0
   -3.2796   -2.3040   -0.1813 O   0  0  0  0  0  0  0  0  0  0  0  0
   -3.5237   -3.6936   -0.2212 C   0  0  0  0  0  0  0  0  0  0  0  0
   -1.7887   -0.4966   -0.1005 C   0  0  0  0  0  0  0  0  0  0  0  0
   -0.5027    0.0186   -0.0389 C   0  0  0  0  0  0  0  0  0  0  0  0
   -2.8666    0.3389   -0.1771 O   0  0  0  0  0  0  0  0  0  0  0  0
   -3.6353    0.4907    1.0245 C   0  0  0  0  0  0  0  0  0  0  0  0
   -3.1833    1.7624    1.7319 C   0  0  0  0  0  0  0  0  0  0  0  0
   -3.8037    2.9015    0.8897 C   0  0  0  0  0  0  0  0  0  0  0  0
   -4.9543    2.2515    0.0759 C   0  0  0  0  0  0  0  0  0  0  0  0
   -5.0538    0.8013    0.5785 C   0  0  0  0  0  0  0  0  0  0  0  0
    7.2336    2.1457   -0.3203 H   0  0  0  0  0  0  0  0  0  0  0  0
    4.7774   -0.5206   -1.8717 H   0  0  0  0  0  0  0  0  0  0  0  0
    4.6272    0.1418    1.1082 H   0  0  0  0  0  0  0  0  0  0  0  0
    5.3147   -1.3138    0.3905 H   0  0  0  0  0  0  0  0  0  0  0  0
    3.1326   -1.9332   -0.5751 H   0  0  0  0  0  0  0  0  0  0  0  0
    2.9894   -1.7514    1.1767 H   0  0  0  0  0  0  0  0  0  0  0  0
    2.2398   -0.1408   -2.1261 H   0  0  0  0  0  0  0  0  0  0  0  0
    1.5205    1.3266   -1.4798 H   0  0  0  0  0  0  0  0  0  0  0  0
    3.7319    2.0353   -0.5553 H   0  0  0  0  0  0  0  0  0  0  0  0
    3.8512    1.7349   -2.2838 H   0  0  0  0  0  0  0  0  0  0  0  0
    1.2510   -2.8803   -0.0425 H   0  0  0  0  0  0  0  0  0  0  0  0
   -1.0006   -3.8046   -0.1462 H   0  0  0  0  0  0  0  0  0  0  0  0
   -3.0794   -4.1548   -1.1135 H   0  0  0  0  0  0  0  0  0  0  0  0
   -3.1361   -4.1946    0.6761 H   0  0  0  0  0  0  0  0  0  0  0  0
   -4.6080   -3.8061   -0.2583 H   0  0  0  0  0  0  0  0  0  0  0  0
   -0.3830    1.0985    0.0036 H   0  0  0  0  0  0  0  0  0  0  0  0
   -3.5566   -0.4091    1.6442 H   0  0  0  0  0  0  0  0  0  0  0  0
   -2.0914    1.8165    1.8079 H   0  0  0  0  0  0  0  0  0  0  0  0
   -3.5848    1.7696    2.7523 H   0  0  0  0  0  0  0  0  0  0  0  0
   -4.1626    3.7115    1.5324 H   0  0  0  0  0  0  0  0  0  0  0  0
   -3.0620    3.3367    0.2149 H   0  0  0  0  0  0  0  0  0  0  0  0
   -5.9016    2.7871    0.1952 H   0  0  0  0  0  0  0  0  0  0  0  0
   -4.7100    2.2642   -0.9890 H   0  0  0  0  0  0  0  0  0  0  0  0
   -5.7337    0.7264    1.4376 H   0  0  0  0  0  0  0  0  0  0  0  0
   -5.3866    0.0878   -0.1813 H   0  0  0  0  0  0  0  0  0  0  0  0
  2  4  1  0  0  0  0
  2  1  1  0  0  0  0
  3  2  2  0  0  0  0
  4 27  1  6  0  0  0
  4  5  1  0  0  0  0
  5 29  1  0  0  0  0
  5 28  1  0  0  0  0
  6  5  1  0  0  0  0
  6 31  1  0  0  0  0
  7  6  1  0  0  0  0
  7 10  1  1  0  0  0
  8  7  1  0  0  0  0
  9  8  1  0  0  0  0
  9  4  1  0  0  0  0
  9 34  1  0  0  0  0
 10 11  3  0  0  0  0
 12  7  1  0  0  0  0
 13 36  1  0  0  0  0
 13 12  2  0  0  0  0
 14 13  1  0  0  0  0
 15 14  2  0  0  0  0
 15 18  1  0  0  0  0
 16 15  1  0  0  0  0
 17 16  1  0  0  0  0
 17 39  1  0  0  0  0
 18 19  2  0  0  0  0
 19 12  1  0  0  0  0
 19 41  1  0  0  0  0
 20 18  1  0  0  0  0
 20 21  1  0  0  0  0
 21 42  1  0  0  0  0
 21 22  1  0  0  0  0
 22 43  1  0  0  0  0
 22 44  1  0  0  0  0
 23 45  1  0  0  0  0
 23 22  1  0  0  0  0
 24 47  1  0  0  0  0
 24 25  1  0  0  0  0
 24 23  1  0  0  0  0
 25 21  1  0  0  0  0
 25 49  1  0  0  0  0
 26  1  1  0  0  0  0
 30  6  1  0  0  0  0
 32  8  1  0  0  0  0
 33  8  1  0  0  0  0
 35  9  1  0  0  0  0
 37 14  1  0  0  0  0
 38 17  1  0  0  0  0
 40 17  1  0  0  0  0
 46 23  1  0  0  0  0
 48 24  1  0  0  0  0
 50 25  1  0  0  0  0
M  END
