omegapdb_1z1r_25.xyz
 OpenBabel12161914463D

 66 68  0  0  1  0  0  0  0  0999 V2000
    0.7177   -0.5958    2.5873 C   0  0  2  0  0  0  0  0  0  0  0  0
    0.9911   -1.8851    1.7690 C   0  0  0  0  0  0  0  0  0  0  0  0
    0.0752   -2.2075    0.6099 C   0  0  0  0  0  0  0  0  0  0  0  0
   -1.1481   -2.8481    0.8215 C   0  0  0  0  0  0  0  0  0  0  0  0
   -2.0127   -3.1135   -0.2320 C   0  0  0  0  0  0  0  0  0  0  0  0
   -1.6529   -2.7515   -1.5301 C   0  0  0  0  0  0  0  0  0  0  0  0
   -0.4011   -2.1883   -1.7715 C   0  0  0  0  0  0  0  0  0  0  0  0
    0.4365   -1.9019   -0.7053 C   0  0  0  0  0  0  0  0  0  0  0  0
   -2.4876   -2.9228   -2.5988 O   0  0  0  0  0  0  0  0  0  0  0  0
   -3.8249   -2.4530   -2.4688 C   0  0  0  0  0  0  0  0  0  0  0  0
   -3.9577   -0.9324   -2.5422 C   0  0  0  0  0  0  0  0  0  0  0  0
   -3.3705   -0.1267   -1.3813 C   0  0  0  0  0  0  0  0  0  0  0  0
   -4.1168   -0.3749   -0.0804 C   0  0  0  0  0  0  0  0  0  0  0  0
   -5.2454   -0.8493   -0.0882 O   0  0  0  0  0  0  0  0  0  0  0  0
   -3.5422   -0.0220    1.1072 N   0  0  0  0  0  0  0  0  0  0  0  0
   -2.1962    0.3989    1.4543 C   0  0  2  0  0  0  0  0  0  0  0  0
   -1.8799   -0.2647    2.8032 C   0  0  0  0  0  0  0  0  0  0  0  0
   -2.8009   -0.4822    3.5777 O   0  0  0  0  0  0  0  0  0  0  0  0
   -0.6049   -0.5608    3.2133 N   0  0  0  0  0  0  0  0  0  0  0  0
   -2.1234    1.9222    1.6741 C   0  0  0  0  0  0  0  0  0  0  0  0
   -2.1492    2.7129    0.3780 C   0  0  0  0  0  0  0  0  0  0  0  0
   -1.7160    2.2768   -0.6772 O   0  0  0  0  0  0  0  0  0  0  0  0
   -2.6624    3.9647    0.4795 N   0  0  0  0  0  0  0  0  0  0  0  0
    1.1227    0.7180    1.9056 C   0  0  2  0  0  0  0  0  0  0  0  0
    0.5512    0.8460    0.6297 O   0  0  0  0  0  0  0  0  0  0  0  0
    2.6424    0.8746    1.7989 C   0  0  0  0  0  0  0  0  0  0  0  0
    2.9488    2.1101    1.0534 N   0  0  0  0  0  0  0  0  0  0  0  0
    4.5541    2.2986    0.6007 S   0  0  0  0  0  0  0  0  0  0  0  0
    5.4133    1.6420    1.5748 O   0  0  0  0  0  0  0  0  0  0  0  0
    4.7053    3.7102    0.2921 O   0  0  0  0  0  0  0  0  0  0  0  0
    4.6098    1.3580   -0.8967 C   0  0  0  0  0  0  0  0  0  0  0  0
    3.9745    1.8624   -2.0267 C   0  0  0  0  0  0  0  0  0  0  0  0
    3.9823    1.1042   -3.1932 C   0  0  0  0  0  0  0  0  0  0  0  0
    4.6229   -0.1333   -3.2220 C   0  0  0  0  0  0  0  0  0  0  0  0
    5.2611   -0.6201   -2.0824 C   0  0  0  0  0  0  0  0  0  0  0  0
    5.2571    0.1262   -0.9087 C   0  0  0  0  0  0  0  0  0  0  0  0
    1.3898   -0.6686    3.4521 H   0  0  0  0  0  0  0  0  0  0  0  0
    0.9601   -2.7168    2.4836 H   0  0  0  0  0  0  0  0  0  0  0  0
    2.0259   -1.8357    1.4097 H   0  0  0  0  0  0  0  0  0  0  0  0
   -1.4422   -3.1238    1.8334 H   0  0  0  0  0  0  0  0  0  0  0  0
   -2.9621   -3.6090   -0.0490 H   0  0  0  0  0  0  0  0  0  0  0  0
   -0.1326   -1.9354   -2.7944 H   0  0  0  0  0  0  0  0  0  0  0  0
    1.3864   -1.4092   -0.9016 H   0  0  0  0  0  0  0  0  0  0  0  0
   -4.2915   -2.8283   -1.5490 H   0  0  0  0  0  0  0  0  0  0  0  0
   -4.3538   -2.9016   -3.3154 H   0  0  0  0  0  0  0  0  0  0  0  0
   -3.4983   -0.5942   -3.4782 H   0  0  0  0  0  0  0  0  0  0  0  0
   -5.0305   -0.7081   -2.5931 H   0  0  0  0  0  0  0  0  0  0  0  0
   -2.2979   -0.2987   -1.2605 H   0  0  0  0  0  0  0  0  0  0  0  0
   -3.4660    0.9421   -1.6091 H   0  0  0  0  0  0  0  0  0  0  0  0
   -4.1256   -0.2088    1.9160 H   0  0  0  0  0  0  0  0  0  0  0  0
   -1.4750    0.1093    0.6931 H   0  0  0  0  0  0  0  0  0  0  0  0
   -0.6436   -0.9866    4.1305 H   0  0  0  0  0  0  0  0  0  0  0  0
   -2.9496    2.2194    2.3313 H   0  0  0  0  0  0  0  0  0  0  0  0
   -1.1924    2.1841    2.1901 H   0  0  0  0  0  0  0  0  0  0  0  0
   -2.9714    4.3553    1.3540 H   0  0  0  0  0  0  0  0  0  0  0  0
   -2.6557    4.5498   -0.3414 H   0  0  0  0  0  0  0  0  0  0  0  0
    0.7588    1.5297    2.5638 H   0  0  0  0  0  0  0  0  0  0  0  0
    1.0238    1.5694    0.1888 H   0  0  0  0  0  0  0  0  0  0  0  0
    3.1169    0.8817    2.7866 H   0  0  0  0  0  0  0  0  0  0  0  0
    3.0656    0.0416    1.2310 H   0  0  0  0  0  0  0  0  0  0  0  0
    2.6767    2.9699    1.5297 H   0  0  0  0  0  0  0  0  0  0  0  0
    3.4885    2.8349   -1.9861 H   0  0  0  0  0  0  0  0  0  0  0  0
    3.4854    1.4789   -4.0839 H   0  0  0  0  0  0  0  0  0  0  0  0
    4.6254   -0.7208   -4.1372 H   0  0  0  0  0  0  0  0  0  0  0  0
    5.7619   -1.5842   -2.1075 H   0  0  0  0  0  0  0  0  0  0  0  0
    5.7497   -0.2282   -0.0066 H   0  0  0  0  0  0  0  0  0  0  0  0
  1 19  1  0  0  0  0
  1 37  1  1  0  0  0
  2 38  1  0  0  0  0
  2  1  1  0  0  0  0
  3  4  1  0  0  0  0
  3  2  1  0  0  0  0
  4 40  1  0  0  0  0
  5 41  1  0  0  0  0
  5  4  2  0  0  0  0
  6  5  1  0  0  0  0
  7  6  2  0  0  0  0
  7  8  1  0  0  0  0
  8  3  2  0  0  0  0
  9 10  1  0  0  0  0
  9  6  1  0  0  0  0
 10 44  1  0  0  0  0
 11 10  1  0  0  0  0
 11 12  1  0  0  0  0
 12 48  1  0  0  0  0
 12 13  1  0  0  0  0
 13 15  1  0  0  0  0
 14 13  2  0  0  0  0
 15 16  1  0  0  0  0
 15 50  1  0  0  0  0
 16 51  1  6  0  0  0
 16 20  1  0  0  0  0
 16 17  1  0  0  0  0
 17 19  1  0  0  0  0
 17 18  2  0  0  0  0
 19 52  1  0  0  0  0
 20 54  1  0  0  0  0
 20 53  1  0  0  0  0
 21 23  1  0  0  0  0
 21 20  1  0  0  0  0
 22 21  2  0  0  0  0
 23 55  1  0  0  0  0
 24 57  1  1  0  0  0
 24  1  1  0  0  0  0
 25 24  1  0  0  0  0
 26 24  1  0  0  0  0
 26 59  1  0  0  0  0
 27 61  1  0  0  0  0
 27 26  1  0  0  0  0
 28 27  1  0  0  0  0
 28 29  2  0  0  0  0
 30 28  2  0  0  0  0
 31 28  1  0  0  0  0
 32 62  1  0  0  0  0
 32 31  2  0  0  0  0
 33 32  1  0  0  0  0
 34 33  2  0  0  0  0
 34 35  1  0  0  0  0
 35 36  2  0  0  0  0
 36 31  1  0  0  0  0
 36 66  1  0  0  0  0
 39  2  1  0  0  0  0
 42  7  1  0  0  0  0
 43  8  1  0  0  0  0
 45 10  1  0  0  0  0
 46 11  1  0  0  0  0
 47 11  1  0  0  0  0
 49 12  1  0  0  0  0
 56 23  1  0  0  0  0
 58 25  1  0  0  0  0
 60 26  1  0  0  0  0
 63 33  1  0  0  0  0
 64 34  1  0  0  0  0
 65 35  1  0  0  0  0
M  END
