omegacsd_GALSEM_06.xyz
 OpenBabel12161914463D

 39 40  0  0  0  0  0  0  0  0999 V2000
    1.0114    0.3440    1.6031 S   0  0  0  0  0  0  0  0  0  0  0  0
    0.8852    1.7874    1.5472 O   0  0  0  0  0  0  0  0  0  0  0  0
    0.0515   -0.4536    2.3687 O   0  0  0  0  0  0  0  0  0  0  0  0
    2.4954   -0.1022    2.2374 N   0  0  0  0  0  0  0  0  0  0  0  0
    3.6711    0.6428    2.1533 C   0  0  0  0  0  0  0  0  0  0  0  0
    3.9036    1.4158    1.2509 O   0  0  0  0  0  0  0  0  0  0  0  0
    4.6274    0.3656    3.2962 C   0  0  0  0  0  0  0  0  0  0  0  0
    5.9052    1.1861    3.1786 C   0  0  0  0  0  0  0  0  0  0  0  0
    1.0455   -0.2888   -0.0555 C   0  0  0  0  0  0  0  0  0  0  0  0
   -0.1764   -0.6215   -0.6784 C   0  0  0  0  0  0  0  0  0  0  0  0
   -1.3611   -0.5225    0.0120 N   0  0  0  0  0  0  0  0  0  0  0  0
   -2.6466   -0.4481   -0.5275 C   0  0  0  0  0  0  0  0  0  0  0  0
   -2.9153    0.2174   -1.7251 C   0  0  0  0  0  0  0  0  0  0  0  0
   -4.2173    0.2672   -2.2082 C   0  0  0  0  0  0  0  0  0  0  0  0
   -5.2643   -0.3256   -1.5114 C   0  0  0  0  0  0  0  0  0  0  0  0
   -4.9971   -0.9662   -0.3046 C   0  0  0  0  0  0  0  0  0  0  0  0
   -3.7018   -1.0195    0.1925 C   0  0  0  0  0  0  0  0  0  0  0  0
   -4.4979    0.9599   -3.5110 C   0  0  0  0  0  0  0  0  0  0  0  0
   -3.3856    1.4680   -4.0705 F   0  0  0  0  0  0  0  0  0  0  0  0
   -5.3693    1.9756   -3.3545 F   0  0  0  0  0  0  0  0  0  0  0  0
   -5.0491    0.1170   -4.4067 F   0  0  0  0  0  0  0  0  0  0  0  0
   -0.1027   -1.0770   -1.9980 C   0  0  0  0  0  0  0  0  0  0  0  0
    1.1348   -1.1371   -2.6240 C   0  0  0  0  0  0  0  0  0  0  0  0
    2.2869   -0.7709   -2.0575 N   0  0  0  0  0  0  0  0  0  0  0  0
    2.2233   -0.3482   -0.7958 C   0  0  0  0  0  0  0  0  0  0  0  0
    2.3920   -0.7474    3.0124 H   0  0  0  0  0  0  0  0  0  0  0  0
    4.1121    0.5872    4.2416 H   0  0  0  0  0  0  0  0  0  0  0  0
    4.8551   -0.7092    3.3045 H   0  0  0  0  0  0  0  0  0  0  0  0
    6.5717    0.9906    4.0243 H   0  0  0  0  0  0  0  0  0  0  0  0
    6.4349    0.9430    2.2537 H   0  0  0  0  0  0  0  0  0  0  0  0
    5.6746    2.2545    3.1508 H   0  0  0  0  0  0  0  0  0  0  0  0
   -1.2712   -0.5711    1.0252 H   0  0  0  0  0  0  0  0  0  0  0  0
   -2.1169    0.7108   -2.2706 H   0  0  0  0  0  0  0  0  0  0  0  0
   -6.2726   -0.2773   -1.9091 H   0  0  0  0  0  0  0  0  0  0  0  0
   -5.8059   -1.4255    0.2554 H   0  0  0  0  0  0  0  0  0  0  0  0
   -3.4940   -1.5139    1.1408 H   0  0  0  0  0  0  0  0  0  0  0  0
   -1.0001   -1.3921   -2.5230 H   0  0  0  0  0  0  0  0  0  0  0  0
    1.1986   -1.4880   -3.6519 H   0  0  0  0  0  0  0  0  0  0  0  0
    3.1649   -0.0274   -0.3562 H   0  0  0  0  0  0  0  0  0  0  0  0
  1  4  1  0  0  0  0
  1  3  2  0  0  0  0
  2  1  2  0  0  0  0
  4 26  1  0  0  0  0
  5  4  1  0  0  0  0
  5  7  1  0  0  0  0
  6  5  2  0  0  0  0
  7 28  1  0  0  0  0
  7 27  1  0  0  0  0
  8  7  1  0  0  0  0
  8 29  1  0  0  0  0
  9  1  1  0  0  0  0
 10  9  1  0  0  0  0
 10 11  1  0  0  0  0
 11 32  1  0  0  0  0
 12 11  1  0  0  0  0
 12 17  2  0  0  0  0
 13 12  1  0  0  0  0
 14 13  2  0  0  0  0
 14 15  1  0  0  0  0
 15 16  2  0  0  0  0
 16 17  1  0  0  0  0
 16 35  1  0  0  0  0
 17 36  1  0  0  0  0
 18 20  1  0  0  0  0
 18 14  1  0  0  0  0
 19 18  1  0  0  0  0
 21 18  1  0  0  0  0
 22 10  2  0  0  0  0
 23 24  2  0  0  0  0
 23 22  1  0  0  0  0
 24 25  1  0  0  0  0
 25 39  1  0  0  0  0
 25  9  2  0  0  0  0
 30  8  1  0  0  0  0
 31  8  1  0  0  0  0
 33 13  1  0  0  0  0
 34 15  1  0  0  0  0
 37 22  1  0  0  0  0
 38 23  1  0  0  0  0
M  END
