omegapdb_2f7p_03.xyz
 OpenBabel12161914463D

 34 35  0  0  1  0  0  0  0  0999 V2000
   -1.2156   -0.5469   -0.3751 C   0  0  1  0  0  0  0  0  0  0  0  0
    0.0998    0.0671   -0.2356 N   0  0  0  0  0  0  0  0  0  0  0  0
    1.1766   -0.8984    0.0095 C   0  0  0  0  0  0  0  0  0  0  0  0
    2.5331   -0.2297    0.0445 C   0  0  0  0  0  0  0  0  0  0  0  0
    3.6694   -0.9531   -0.3158 C   0  0  0  0  0  0  0  0  0  0  0  0
    4.9319   -0.3713   -0.2557 C   0  0  0  0  0  0  0  0  0  0  0  0
    5.0729    0.9471    0.1674 C   0  0  0  0  0  0  0  0  0  0  0  0
    3.9439    1.6752    0.5305 C   0  0  0  0  0  0  0  0  0  0  0  0
    2.6832    1.0913    0.4677 C   0  0  0  0  0  0  0  0  0  0  0  0
   -1.7976   -0.9526    1.0137 C   0  0  1  0  0  0  0  0  0  0  0  0
   -1.2189   -0.1734    2.0428 O   0  0  0  0  0  0  0  0  0  0  0  0
   -3.3294   -0.6612    0.9371 C   0  0  1  0  0  0  0  0  0  0  0  0
   -3.6787    0.4281    1.7637 O   0  0  0  0  0  0  0  0  0  0  0  0
   -3.5891   -0.2376   -0.5255 C   0  0  1  0  0  0  0  0  0  0  0  0
   -4.6946    0.6066   -0.6604 O   0  0  0  0  0  0  0  0  0  0  0  0
   -2.2669    0.4146   -0.9310 C   0  0  2  0  0  0  0  0  0  0  0  0
   -2.1052    0.6879   -2.7145 S   0  0  0  0  0  0  0  0  0  0  0  0
   -1.1819   -1.4430   -1.0153 H   0  0  0  0  0  0  0  0  0  0  0  0
    0.3158    0.5640   -1.0981 H   0  0  0  0  0  0  0  0  0  0  0  0
    0.9799   -1.3867    0.9756 H   0  0  0  0  0  0  0  0  0  0  0  0
    1.1825   -1.7019   -0.7463 H   0  0  0  0  0  0  0  0  0  0  0  0
    3.5674   -1.9849   -0.6486 H   0  0  0  0  0  0  0  0  0  0  0  0
    5.8090   -0.9480   -0.5413 H   0  0  0  0  0  0  0  0  0  0  0  0
    6.0575    1.4054    0.2158 H   0  0  0  0  0  0  0  0  0  0  0  0
    4.0428    2.7066    0.8611 H   0  0  0  0  0  0  0  0  0  0  0  0
    1.8010    1.6653    0.7400 H   0  0  0  0  0  0  0  0  0  0  0  0
   -1.6110   -2.0126    1.2256 H   0  0  0  0  0  0  0  0  0  0  0  0
   -0.5084    0.3307    1.5967 H   0  0  0  0  0  0  0  0  0  0  0  0
   -3.9309   -1.5334    1.2175 H   0  0  0  0  0  0  0  0  0  0  0  0
   -2.8614    0.6515    2.2444 H   0  0  0  0  0  0  0  0  0  0  0  0
   -3.7613   -1.1228   -1.1524 H   0  0  0  0  0  0  0  0  0  0  0  0
   -4.7146    1.1335    0.1555 H   0  0  0  0  0  0  0  0  0  0  0  0
   -2.1696    1.3738   -0.4102 H   0  0  0  0  0  0  0  0  0  0  0  0
   -3.2315    1.4089   -2.8281 H   0  0  0  0  0  0  0  0  0  0  0  0
  1 16  1  6  0  0  0
  1  2  1  0  0  0  0
  2  3  1  0  0  0  0
  3  4  1  0  0  0  0
  3 20  1  0  0  0  0
  4  9  2  0  0  0  0
  5  6  2  0  0  0  0
  5  4  1  0  0  0  0
  6  7  1  0  0  0  0
  7 24  1  0  0  0  0
  7  8  2  0  0  0  0
  8 25  1  0  0  0  0
  9  8  1  0  0  0  0
  9 26  1  0  0  0  0
 10  1  1  6  0  0  0
 10 27  1  0  0  0  0
 10 11  1  0  0  0  0
 12 14  1  6  0  0  0
 12 10  1  0  0  0  0
 12 29  1  0  0  0  0
 12 13  1  0  0  0  0
 13 30  1  0  0  0  0
 14 16  1  6  0  0  0
 15 14  1  0  0  0  0
 15 32  1  0  0  0  0
 16 33  1  1  0  0  0
 17 16  1  0  0  0  0
 18  1  1  0  0  0  0
 19  2  1  0  0  0  0
 21  3  1  0  0  0  0
 22  5  1  0  0  0  0
 23  6  1  0  0  0  0
 28 11  1  0  0  0  0
 31 14  1  0  0  0  0
 34 17  1  0  0  0  0
M  END
