omegapdb_1m5f_02.xyz
 OpenBabel12161914463D

 25 25  0  0  1  0  0  0  0  0999 V2000
   -1.7655   -3.5500   -0.8038 O   0  0  0  0  0  0  0  0  0  0  0  0
   -0.9366   -2.5077   -0.9195 C   0  0  0  0  0  0  0  0  0  0  0  0
    0.1559   -2.5735   -1.4401 O   0  0  0  0  0  0  0  0  0  0  0  0
   -1.5025   -1.2677   -0.3377 C   0  0  0  0  0  0  0  0  0  0  0  0
   -2.6535   -1.2866    0.2914 N   0  0  0  0  0  0  0  0  0  0  0  0
   -2.8579    0.0015    0.7016 O   0  0  0  0  0  0  0  0  0  0  0  0
   -1.8360    0.7853    0.3098 C   0  0  0  0  0  0  0  0  0  0  0  0
   -0.9147    0.0353   -0.3566 C   0  0  0  0  0  0  0  0  0  0  0  0
    0.4296    0.4437   -0.8720 C   0  0  0  0  0  0  0  0  0  0  0  0
    1.5698   -0.0123    0.0459 C   0  0  2  0  0  0  0  0  0  0  0  0
    1.4890    0.4296    1.4406 N   0  0  0  0  0  0  0  0  0  0  0  0
    2.9309    0.4159   -0.5239 C   0  0  0  0  0  0  0  0  0  0  0  0
    3.1617    0.4712   -1.7062 O   0  0  0  0  0  0  0  0  0  0  0  0
    3.8425    0.6906    0.4101 O   0  0  0  0  0  0  0  0  0  0  0  0
   -1.9257    2.2239    0.6858 C   0  0  0  0  0  0  0  0  0  0  0  0
   -1.3136   -4.3085   -1.2106 H   0  0  0  0  0  0  0  0  0  0  0  0
    0.6052    0.0059   -1.8549 H   0  0  0  0  0  0  0  0  0  0  0  0
    0.4715    1.5347   -0.9986 H   0  0  0  0  0  0  0  0  0  0  0  0
    1.5739   -1.1073    0.0341 H   0  0  0  0  0  0  0  0  0  0  0  0
    1.0659    1.3529    1.4902 H   0  0  0  0  0  0  0  0  0  0  0  0
    0.8988   -0.1948    1.9790 H   0  0  0  0  0  0  0  0  0  0  0  0
    3.3655    0.6211    1.2691 H   0  0  0  0  0  0  0  0  0  0  0  0
   -1.2071    2.8227    0.1208 H   0  0  0  0  0  0  0  0  0  0  0  0
   -2.9295    2.6094    0.4921 H   0  0  0  0  0  0  0  0  0  0  0  0
   -1.7178    2.3646    1.7533 H   0  0  0  0  0  0  0  0  0  0  0  0
  2  1  1  0  0  0  0
  2  4  1  0  0  0  0
  3  2  2  0  0  0  0
  4  5  2  0  0  0  0
  5  6  1  0  0  0  0
  7 15  1  0  0  0  0
  7  6  1  0  0  0  0
  8  4  1  0  0  0  0
  8  7  2  0  0  0  0
  9  8  1  0  0  0  0
  9 10  1  0  0  0  0
 10 19  1  1  0  0  0
 10 11  1  0  0  0  0
 11 20  1  0  0  0  0
 11 21  1  0  0  0  0
 12 10  1  0  0  0  0
 12 14  1  0  0  0  0
 13 12  2  0  0  0  0
 14 22  1  0  0  0  0
 15 25  1  0  0  0  0
 16  1  1  0  0  0  0
 17  9  1  0  0  0  0
 18  9  1  0  0  0  0
 23 15  1  0  0  0  0
 24 15  1  0  0  0  0
M  END
