omegapdb_1v2k_15.xyz
 OpenBabel12161914463D

 61 65  0  0  0  0  0  0  0  0999 V2000
    8.0930   -2.2738   -1.7682 N   0  0  0  0  0  0  0  0  0  0  0  0
    7.3923   -1.5709   -2.6578 C   0  0  0  0  0  0  0  0  0  0  0  0
    6.3750   -0.6832   -2.3435 C   0  0  0  0  0  0  0  0  0  0  0  0
    6.0359   -0.4750   -0.9937 C   0  0  0  0  0  0  0  0  0  0  0  0
    6.7642   -1.2212   -0.0495 C   0  0  0  0  0  0  0  0  0  0  0  0
    7.7570   -2.0806   -0.4910 C   0  0  0  0  0  0  0  0  0  0  0  0
    5.0235    0.3789   -0.6270 N   0  0  0  0  0  0  0  0  0  0  0  0
    4.9923    1.0727    0.6485 C   0  0  0  0  0  0  0  0  0  0  0  0
    3.5862    1.0307    1.2681 C   0  0  0  0  0  0  0  0  0  0  0  0
    2.5029    1.0320    0.1709 C   0  0  0  0  0  0  0  0  0  0  0  0
    3.0297    1.7456   -1.0733 C   0  0  0  0  0  0  0  0  0  0  0  0
    4.2090    0.9817   -1.6697 C   0  0  0  0  0  0  0  0  0  0  0  0
    1.2537    1.7410    0.6702 C   0  0  0  0  0  0  0  0  0  0  0  0
    1.1553    2.9576    0.5844 O   0  0  0  0  0  0  0  0  0  0  0  0
    0.2540    0.9864    1.2246 N   0  0  0  0  0  0  0  0  0  0  0  0
   -1.0460    1.6163    1.4456 C   0  0  0  0  0  0  0  0  0  0  0  0
   -2.1409    0.6686    0.9674 C   0  0  0  0  0  0  0  0  0  0  0  0
   -2.0901   -0.6123    1.6982 N   0  0  0  0  0  0  0  0  0  0  0  0
   -0.8153   -0.8714    2.3830 C   0  0  0  0  0  0  0  0  0  0  0  0
    0.3724   -0.4423    1.5262 C   0  0  0  0  0  0  0  0  0  0  0  0
   -2.6703   -1.9410    0.8296 S   0  0  0  0  0  0  0  0  0  0  0  0
   -1.8941   -2.0933   -0.3965 O   0  0  0  0  0  0  0  0  0  0  0  0
   -2.7740   -3.0418    1.7738 O   0  0  0  0  0  0  0  0  0  0  0  0
   -4.3024   -1.4168    0.3792 C   0  0  0  0  0  0  0  0  0  0  0  0
   -4.5188   -0.8825   -0.8631 C   0  0  0  0  0  0  0  0  0  0  0  0
   -5.7966   -0.3490   -1.1876 C   0  0  0  0  0  0  0  0  0  0  0  0
   -6.8324   -0.4050   -0.2199 C   0  0  0  0  0  0  0  0  0  0  0  0
   -6.5711   -1.0053    1.0446 C   0  0  0  0  0  0  0  0  0  0  0  0
   -5.3301   -1.5034    1.3453 C   0  0  0  0  0  0  0  0  0  0  0  0
   -8.1066    0.1413   -0.5369 C   0  0  0  0  0  0  0  0  0  0  0  0
   -8.3183    0.7131   -1.7604 C   0  0  0  0  0  0  0  0  0  0  0  0
   -7.2963    0.7678   -2.7389 C   0  0  0  0  0  0  0  0  0  0  0  0
   -6.0667    0.2409   -2.4497 C   0  0  0  0  0  0  0  0  0  0  0  0
   -9.8724    1.4002   -2.1450 Cl  0  0  0  0  0  0  0  0  0  0  0  0
    7.6561   -1.7269   -3.7045 H   0  0  0  0  0  0  0  0  0  0  0  0
    5.8689   -0.1569   -3.1437 H   0  0  0  0  0  0  0  0  0  0  0  0
    6.5424   -1.1672    1.0112 H   0  0  0  0  0  0  0  0  0  0  0  0
    8.3238   -2.6545    0.2418 H   0  0  0  0  0  0  0  0  0  0  0  0
    5.7262    0.6417    1.3283 H   0  0  0  0  0  0  0  0  0  0  0  0
    5.2895    2.1214    0.4953 H   0  0  0  0  0  0  0  0  0  0  0  0
    3.4705    0.1461    1.9058 H   0  0  0  0  0  0  0  0  0  0  0  0
    3.4654    1.9114    1.9093 H   0  0  0  0  0  0  0  0  0  0  0  0
    2.2627   -0.0025   -0.0990 H   0  0  0  0  0  0  0  0  0  0  0  0
    3.3177    2.7653   -0.7945 H   0  0  0  0  0  0  0  0  0  0  0  0
    2.2451    1.8433   -1.8294 H   0  0  0  0  0  0  0  0  0  0  0  0
    4.8123    1.6548   -2.3015 H   0  0  0  0  0  0  0  0  0  0  0  0
    3.8366    0.1767   -2.3168 H   0  0  0  0  0  0  0  0  0  0  0  0
   -1.0637    2.5432    0.8716 H   0  0  0  0  0  0  0  0  0  0  0  0
   -1.1814    1.8882    2.5025 H   0  0  0  0  0  0  0  0  0  0  0  0
   -2.0049    0.4943   -0.1108 H   0  0  0  0  0  0  0  0  0  0  0  0
   -3.1313    1.1133    1.1100 H   0  0  0  0  0  0  0  0  0  0  0  0
   -0.8149   -0.3091    3.3241 H   0  0  0  0  0  0  0  0  0  0  0  0
   -0.7668   -1.9324    2.6369 H   0  0  0  0  0  0  0  0  0  0  0  0
    1.3019   -0.6351    2.0728 H   0  0  0  0  0  0  0  0  0  0  0  0
    0.3893   -1.0366    0.6018 H   0  0  0  0  0  0  0  0  0  0  0  0
   -3.7219   -0.8615   -1.5991 H   0  0  0  0  0  0  0  0  0  0  0  0
   -7.3757   -1.0602    1.7732 H   0  0  0  0  0  0  0  0  0  0  0  0
   -5.1207   -1.9654    2.3061 H   0  0  0  0  0  0  0  0  0  0  0  0
   -8.9062    0.1045    0.1976 H   0  0  0  0  0  0  0  0  0  0  0  0
   -7.5033    1.2260   -3.7008 H   0  0  0  0  0  0  0  0  0  0  0  0
   -5.2714    0.2723   -3.1920 H   0  0  0  0  0  0  0  0  0  0  0  0
  1  6  2  0  0  0  0
  2  3  2  0  0  0  0
  2  1  1  0  0  0  0
  3  4  1  0  0  0  0
  4  7  1  0  0  0  0
  4  5  2  0  0  0  0
  5 37  1  0  0  0  0
  6  5  1  0  0  0  0
  6 38  1  0  0  0  0
  7  8  1  0  0  0  0
  8  9  1  0  0  0  0
  8 39  1  0  0  0  0
  9 41  1  0  0  0  0
  9 42  1  0  0  0  0
 10 13  1  0  0  0  0
 10  9  1  0  0  0  0
 11 44  1  0  0  0  0
 11 10  1  0  0  0  0
 12 11  1  0  0  0  0
 12  7  1  0  0  0  0
 13 15  1  0  0  0  0
 14 13  2  0  0  0  0
 15 16  1  0  0  0  0
 15 20  1  0  0  0  0
 16 49  1  0  0  0  0
 17 51  1  0  0  0  0
 17 16  1  0  0  0  0
 17 18  1  0  0  0  0
 18 19  1  0  0  0  0
 19 53  1  0  0  0  0
 19 52  1  0  0  0  0
 20 54  1  0  0  0  0
 20 19  1  0  0  0  0
 21 18  1  0  0  0  0
 21 23  2  0  0  0  0
 22 21  2  0  0  0  0
 24 21  1  0  0  0  0
 24 29  2  0  0  0  0
 25 24  1  0  0  0  0
 26 25  2  0  0  0  0
 26 27  1  0  0  0  0
 27 28  2  0  0  0  0
 28 29  1  0  0  0  0
 28 57  1  0  0  0  0
 29 58  1  0  0  0  0
 30 27  1  0  0  0  0
 30 59  1  0  0  0  0
 31 30  2  0  0  0  0
 32 33  2  0  0  0  0
 32 31  1  0  0  0  0
 33 26  1  0  0  0  0
 34 31  1  0  0  0  0
 35  2  1  0  0  0  0
 36  3  1  0  0  0  0
 40  8  1  0  0  0  0
 43 10  1  0  0  0  0
 45 11  1  0  0  0  0
 46 12  1  0  0  0  0
 47 12  1  0  0  0  0
 48 16  1  0  0  0  0
 50 17  1  0  0  0  0
 55 20  1  0  0  0  0
 56 25  1  0  0  0  0
 60 32  1  0  0  0  0
 61 33  1  0  0  0  0
M  END
