omegapdb_1z1r_27.xyz
 OpenBabel12161914463D

 66 68  0  0  1  0  0  0  0  0999 V2000
    0.7334    0.3689    0.5363 C   0  0  2  0  0  0  0  0  0  0  0  0
    1.2881   -1.0564    0.2351 C   0  0  0  0  0  0  0  0  0  0  0  0
    0.2222   -2.0417   -0.1883 C   0  0  0  0  0  0  0  0  0  0  0  0
   -0.2878   -2.0268   -1.4894 C   0  0  0  0  0  0  0  0  0  0  0  0
   -1.5041   -2.6360   -1.7824 C   0  0  0  0  0  0  0  0  0  0  0  0
   -2.2099   -3.2982   -0.7755 C   0  0  0  0  0  0  0  0  0  0  0  0
   -1.6247   -3.4570    0.4844 C   0  0  0  0  0  0  0  0  0  0  0  0
   -0.4184   -2.8357    0.7684 C   0  0  0  0  0  0  0  0  0  0  0  0
   -3.4373   -3.8673   -0.9552 O   0  0  0  0  0  0  0  0  0  0  0  0
   -4.4151   -3.2067   -1.7464 C   0  0  0  0  0  0  0  0  0  0  0  0
   -5.2861   -2.2066   -0.9859 C   0  0  0  0  0  0  0  0  0  0  0  0
   -4.5567   -0.9886   -0.4161 C   0  0  0  0  0  0  0  0  0  0  0  0
   -4.0939   -1.1998    1.0181 C   0  0  0  0  0  0  0  0  0  0  0  0
   -4.4104   -2.1851    1.6642 O   0  0  0  0  0  0  0  0  0  0  0  0
   -3.2995   -0.2341    1.5886 N   0  0  0  0  0  0  0  0  0  0  0  0
   -2.9877    1.0999    1.1089 C   0  0  2  0  0  0  0  0  0  0  0  0
   -1.4619    1.3600    1.1470 C   0  0  0  0  0  0  0  0  0  0  0  0
   -0.9842    2.3922    1.5962 O   0  0  0  0  0  0  0  0  0  0  0  0
   -0.7258    0.3573    0.6077 N   0  0  0  0  0  0  0  0  0  0  0  0
   -3.7175    2.1985    1.8792 C   0  0  0  0  0  0  0  0  0  0  0  0
   -3.7490    3.4953    1.0810 C   0  0  0  0  0  0  0  0  0  0  0  0
   -3.6032    3.5244   -0.1300 O   0  0  0  0  0  0  0  0  0  0  0  0
   -4.0098    4.6155    1.8073 N   0  0  0  0  0  0  0  0  0  0  0  0
    1.1532    1.4074   -0.5276 C   0  0  2  0  0  0  0  0  0  0  0  0
    0.6334    1.0453   -1.7931 O   0  0  0  0  0  0  0  0  0  0  0  0
    2.6576    1.5685   -0.7103 C   0  0  0  0  0  0  0  0  0  0  0  0
    3.3171    1.9467    0.5369 N   0  0  0  0  0  0  0  0  0  0  0  0
    4.8601    2.5592    0.4695 S   0  0  0  0  0  0  0  0  0  0  0  0
    5.2127    2.8910    1.8372 O   0  0  0  0  0  0  0  0  0  0  0  0
    4.8654    3.5452   -0.5960 O   0  0  0  0  0  0  0  0  0  0  0  0
    5.8808    1.2003   -0.0434 C   0  0  0  0  0  0  0  0  0  0  0  0
    6.0469    0.9399   -1.4004 C   0  0  0  0  0  0  0  0  0  0  0  0
    6.8222   -0.1452   -1.7925 C   0  0  0  0  0  0  0  0  0  0  0  0
    7.4227   -0.9571   -0.8328 C   0  0  0  0  0  0  0  0  0  0  0  0
    7.2565   -0.6798    0.5221 C   0  0  0  0  0  0  0  0  0  0  0  0
    6.4865    0.4058    0.9251 C   0  0  0  0  0  0  0  0  0  0  0  0
    1.1007    0.7190    1.5076 H   0  0  0  0  0  0  0  0  0  0  0  0
    1.7935   -1.4333    1.1314 H   0  0  0  0  0  0  0  0  0  0  0  0
    2.0470   -0.9989   -0.5516 H   0  0  0  0  0  0  0  0  0  0  0  0
    0.2356   -1.4703   -2.2647 H   0  0  0  0  0  0  0  0  0  0  0  0
   -1.8939   -2.5877   -2.7950 H   0  0  0  0  0  0  0  0  0  0  0  0
   -2.1736   -4.0091    1.2410 H   0  0  0  0  0  0  0  0  0  0  0  0
    0.0081   -2.9115    1.7680 H   0  0  0  0  0  0  0  0  0  0  0  0
   -5.0476   -4.0116   -2.1333 H   0  0  0  0  0  0  0  0  0  0  0  0
   -3.9472   -2.7062   -2.6032 H   0  0  0  0  0  0  0  0  0  0  0  0
   -5.8028   -2.7175   -0.1674 H   0  0  0  0  0  0  0  0  0  0  0  0
   -6.0465   -1.8627   -1.6977 H   0  0  0  0  0  0  0  0  0  0  0  0
   -5.2351   -0.1237   -0.4139 H   0  0  0  0  0  0  0  0  0  0  0  0
   -3.7061   -0.7028   -1.0488 H   0  0  0  0  0  0  0  0  0  0  0  0
   -3.1017   -0.4361    2.5616 H   0  0  0  0  0  0  0  0  0  0  0  0
   -3.2901    1.1744    0.0571 H   0  0  0  0  0  0  0  0  0  0  0  0
   -1.2060   -0.5259    0.5043 H   0  0  0  0  0  0  0  0  0  0  0  0
   -3.2462    2.3545    2.8546 H   0  0  0  0  0  0  0  0  0  0  0  0
   -4.7526    1.8799    2.0565 H   0  0  0  0  0  0  0  0  0  0  0  0
   -4.0466    4.6093    2.8134 H   0  0  0  0  0  0  0  0  0  0  0  0
   -3.9762    5.5021    1.3275 H   0  0  0  0  0  0  0  0  0  0  0  0
    0.7358    2.3718   -0.2000 H   0  0  0  0  0  0  0  0  0  0  0  0
   -0.3130    0.8972   -1.6467 H   0  0  0  0  0  0  0  0  0  0  0  0
    3.0854    0.6512   -1.1382 H   0  0  0  0  0  0  0  0  0  0  0  0
    2.8289    2.3701   -1.4323 H   0  0  0  0  0  0  0  0  0  0  0  0
    3.2195    1.2966    1.3094 H   0  0  0  0  0  0  0  0  0  0  0  0
    5.5795    1.5907   -2.1350 H   0  0  0  0  0  0  0  0  0  0  0  0
    6.9599   -0.3553   -2.8492 H   0  0  0  0  0  0  0  0  0  0  0  0
    8.0248   -1.8076   -1.1422 H   0  0  0  0  0  0  0  0  0  0  0  0
    7.7329   -1.3088    1.2688 H   0  0  0  0  0  0  0  0  0  0  0  0
    6.3574    0.6531    1.9755 H   0  0  0  0  0  0  0  0  0  0  0  0
  1 19  1  0  0  0  0
  1 37  1  1  0  0  0
  2  1  1  0  0  0  0
  2 38  1  0  0  0  0
  3  2  1  0  0  0  0
  3  8  2  0  0  0  0
  4  3  1  0  0  0  0
  5  4  2  0  0  0  0
  5  6  1  0  0  0  0
  6  7  2  0  0  0  0
  7  8  1  0  0  0  0
  7 42  1  0  0  0  0
  8 43  1  0  0  0  0
  9  6  1  0  0  0  0
 10 11  1  0  0  0  0
 10  9  1  0  0  0  0
 11 12  1  0  0  0  0
 11 46  1  0  0  0  0
 12 48  1  0  0  0  0
 12 13  1  0  0  0  0
 13 15  1  0  0  0  0
 13 14  2  0  0  0  0
 15 50  1  0  0  0  0
 16 51  1  6  0  0  0
 16 17  1  0  0  0  0
 16 15  1  0  0  0  0
 16 20  1  0  0  0  0
 17 18  2  0  0  0  0
 19 17  1  0  0  0  0
 20 54  1  0  0  0  0
 20 53  1  0  0  0  0
 21 23  1  0  0  0  0
 21 20  1  0  0  0  0
 22 21  2  0  0  0  0
 23 55  1  0  0  0  0
 24 57  1  1  0  0  0
 24  1  1  0  0  0  0
 25 58  1  0  0  0  0
 25 24  1  0  0  0  0
 26 24  1  0  0  0  0
 26 27  1  0  0  0  0
 27 61  1  0  0  0  0
 28 27  1  0  0  0  0
 28 29  2  0  0  0  0
 30 28  2  0  0  0  0
 31 28  1  0  0  0  0
 31 36  2  0  0  0  0
 32 31  1  0  0  0  0
 33 32  2  0  0  0  0
 33 34  1  0  0  0  0
 34 35  2  0  0  0  0
 35 36  1  0  0  0  0
 35 65  1  0  0  0  0
 36 66  1  0  0  0  0
 39  2  1  0  0  0  0
 40  4  1  0  0  0  0
 41  5  1  0  0  0  0
 44 10  1  0  0  0  0
 45 10  1  0  0  0  0
 47 11  1  0  0  0  0
 49 12  1  0  0  0  0
 52 19  1  0  0  0  0
 56 23  1  0  0  0  0
 59 26  1  0  0  0  0
 60 26  1  0  0  0  0
 62 32  1  0  0  0  0
 63 33  1  0  0  0  0
 64 34  1  0  0  0  0
M  END
