omegacsd_GALSEM_07.xyz
 OpenBabel12161914463D

 39 40  0  0  0  0  0  0  0  0999 V2000
    1.0966    0.2506    2.1582 S   0  0  0  0  0  0  0  0  0  0  0  0
   -0.2055    0.8293    2.4792 O   0  0  0  0  0  0  0  0  0  0  0  0
    2.0680   -0.0173    3.2036 O   0  0  0  0  0  0  0  0  0  0  0  0
    1.7715    1.3136    1.0438 N   0  0  0  0  0  0  0  0  0  0  0  0
    3.1118    1.6234    0.7546 C   0  0  0  0  0  0  0  0  0  0  0  0
    3.3529    2.6767    0.2050 O   0  0  0  0  0  0  0  0  0  0  0  0
    4.2159    0.6670    1.1247 C   0  0  0  0  0  0  0  0  0  0  0  0
    4.9676    1.2008    2.3461 C   0  0  0  0  0  0  0  0  0  0  0  0
    0.8490   -1.2350    1.2327 C   0  0  0  0  0  0  0  0  0  0  0  0
   -0.1765   -1.3304    0.2709 C   0  0  0  0  0  0  0  0  0  0  0  0
   -1.0910   -0.3126    0.1078 N   0  0  0  0  0  0  0  0  0  0  0  0
   -1.9250   -0.0582   -0.9814 C   0  0  0  0  0  0  0  0  0  0  0  0
   -3.1468    0.5660   -0.7157 C   0  0  0  0  0  0  0  0  0  0  0  0
   -4.0099    0.8761   -1.7567 C   0  0  0  0  0  0  0  0  0  0  0  0
   -3.6633    0.5917   -3.0760 C   0  0  0  0  0  0  0  0  0  0  0  0
   -2.4368   -0.0071   -3.3390 C   0  0  0  0  0  0  0  0  0  0  0  0
   -1.5663   -0.3336   -2.3038 C   0  0  0  0  0  0  0  0  0  0  0  0
   -5.3412    1.5149   -1.4732 C   0  0  0  0  0  0  0  0  0  0  0  0
   -5.4536    1.9144   -0.1949 F   0  0  0  0  0  0  0  0  0  0  0  0
   -5.5463    2.5936   -2.2542 F   0  0  0  0  0  0  0  0  0  0  0  0
   -6.3600    0.6678   -1.7179 F   0  0  0  0  0  0  0  0  0  0  0  0
   -0.2360   -2.5314   -0.4438 C   0  0  0  0  0  0  0  0  0  0  0  0
    0.6874   -3.5331   -0.1762 C   0  0  0  0  0  0  0  0  0  0  0  0
    1.6482   -3.4497    0.7496 N   0  0  0  0  0  0  0  0  0  0  0  0
    1.7043   -2.3124    1.4393 C   0  0  0  0  0  0  0  0  0  0  0  0
    1.1330    2.0508    0.7542 H   0  0  0  0  0  0  0  0  0  0  0  0
    4.8896    0.6475    0.2614 H   0  0  0  0  0  0  0  0  0  0  0  0
    3.8549   -0.3494    1.2935 H   0  0  0  0  0  0  0  0  0  0  0  0
    5.2942    2.2299    2.1619 H   0  0  0  0  0  0  0  0  0  0  0  0
    4.3302    1.1891    3.2347 H   0  0  0  0  0  0  0  0  0  0  0  0
    5.8513    0.5877    2.5470 H   0  0  0  0  0  0  0  0  0  0  0  0
   -1.2494    0.2552    0.9354 H   0  0  0  0  0  0  0  0  0  0  0  0
   -3.4148    0.8057    0.3117 H   0  0  0  0  0  0  0  0  0  0  0  0
   -4.3445    0.8503   -3.8792 H   0  0  0  0  0  0  0  0  0  0  0  0
   -2.1521   -0.2292   -4.3629 H   0  0  0  0  0  0  0  0  0  0  0  0
   -0.6051   -0.7894   -2.5244 H   0  0  0  0  0  0  0  0  0  0  0  0
   -1.0176   -2.6983   -1.1781 H   0  0  0  0  0  0  0  0  0  0  0  0
    0.6430   -4.4636   -0.7380 H   0  0  0  0  0  0  0  0  0  0  0  0
    2.4717   -2.2512    2.2094 H   0  0  0  0  0  0  0  0  0  0  0  0
  1  2  2  0  0  0  0
  1  3  2  0  0  0  0
  4  1  1  0  0  0  0
  5  4  1  0  0  0  0
  5  7  1  0  0  0  0
  6  5  2  0  0  0  0
  7 28  1  0  0  0  0
  7  8  1  0  0  0  0
  8 31  1  0  0  0  0
  8 30  1  0  0  0  0
  9 25  1  0  0  0  0
  9  1  1  0  0  0  0
 10  9  2  0  0  0  0
 11 10  1  0  0  0  0
 11 32  1  0  0  0  0
 12 13  1  0  0  0  0
 12 11  1  0  0  0  0
 13 33  1  0  0  0  0
 14 18  1  0  0  0  0
 14 13  2  0  0  0  0
 15 14  1  0  0  0  0
 16 15  2  0  0  0  0
 16 17  1  0  0  0  0
 17 12  2  0  0  0  0
 18 19  1  0  0  0  0
 20 18  1  0  0  0  0
 21 18  1  0  0  0  0
 22 23  2  0  0  0  0
 22 10  1  0  0  0  0
 23 24  1  0  0  0  0
 24 25  2  0  0  0  0
 25 39  1  0  0  0  0
 26  4  1  0  0  0  0
 27  7  1  0  0  0  0
 29  8  1  0  0  0  0
 34 15  1  0  0  0  0
 35 16  1  0  0  0  0
 36 17  1  0  0  0  0
 37 22  1  0  0  0  0
 38 23  1  0  0  0  0
M  END
