omegacsd_DIAVER_02.xyz
 OpenBabel12161914463D

 35 36  0  0  0  0  0  0  0  0999 V2000
   -3.9806    1.0857    0.1807 N   0  0  0  0  0  0  0  0  0  0  0  0
   -4.0383    0.2464   -0.8648 C   0  0  0  0  0  0  0  0  0  0  0  0
   -3.2642   -0.8209   -1.0830 N   0  0  0  0  0  0  0  0  0  0  0  0
   -2.3054   -1.0552   -0.1859 C   0  0  0  0  0  0  0  0  0  0  0  0
   -2.1263   -0.2416    0.9582 C   0  0  0  0  0  0  0  0  0  0  0  0
   -3.0176    0.8049    1.0617 C   0  0  0  0  0  0  0  0  0  0  0  0
   -1.0465   -0.5165    1.9680 C   0  0  0  0  0  0  0  0  0  0  0  0
    0.3749   -0.3936    1.4352 C   0  0  0  0  0  0  0  0  0  0  0  0
    0.7052    0.6019    0.5107 C   0  0  0  0  0  0  0  0  0  0  0  0
    2.0051    0.7106    0.0215 C   0  0  0  0  0  0  0  0  0  0  0  0
    2.9999   -0.1788    0.4681 C   0  0  0  0  0  0  0  0  0  0  0  0
    2.6690   -1.1536    1.3949 C   0  0  0  0  0  0  0  0  0  0  0  0
    1.3695   -1.2608    1.8799 C   0  0  0  0  0  0  0  0  0  0  0  0
    4.2970   -0.0595    0.0445 O   0  0  0  0  0  0  0  0  0  0  0  0
    4.5254   -0.5263   -1.2766 C   0  0  0  0  0  0  0  0  0  0  0  0
    2.4083    1.6373   -0.8886 O   0  0  0  0  0  0  0  0  0  0  0  0
    1.4416    2.5526   -1.3551 C   0  0  0  0  0  0  0  0  0  0  0  0
   -1.5304   -2.1618   -0.3961 N   0  0  0  0  0  0  0  0  0  0  0  0
   -4.9757    0.5178   -1.8198 N   0  0  0  0  0  0  0  0  0  0  0  0
   -2.9584    1.4774    1.9215 H   0  0  0  0  0  0  0  0  0  0  0  0
   -1.1685   -1.5268    2.3799 H   0  0  0  0  0  0  0  0  0  0  0  0
   -1.1816    0.1731    2.8115 H   0  0  0  0  0  0  0  0  0  0  0  0
   -0.0610    1.2917    0.1701 H   0  0  0  0  0  0  0  0  0  0  0  0
    3.4508   -1.8288    1.7273 H   0  0  0  0  0  0  0  0  0  0  0  0
    1.1286   -2.0337    2.6064 H   0  0  0  0  0  0  0  0  0  0  0  0
    5.5858   -0.3608   -1.4820 H   0  0  0  0  0  0  0  0  0  0  0  0
    4.3048   -1.5998   -1.3556 H   0  0  0  0  0  0  0  0  0  0  0  0
    3.9208    0.0281   -2.0030 H   0  0  0  0  0  0  0  0  0  0  0  0
    1.9568    3.2110   -2.0566 H   0  0  0  0  0  0  0  0  0  0  0  0
    0.6230    2.0342   -1.8719 H   0  0  0  0  0  0  0  0  0  0  0  0
    1.0284    3.1506   -0.5324 H   0  0  0  0  0  0  0  0  0  0  0  0
   -1.6402   -2.5596   -1.3182 H   0  0  0  0  0  0  0  0  0  0  0  0
   -0.5797   -2.1417   -0.0523 H   0  0  0  0  0  0  0  0  0  0  0  0
   -5.7252    1.1338   -1.5452 H   0  0  0  0  0  0  0  0  0  0  0  0
   -5.1953   -0.2373   -2.4515 H   0  0  0  0  0  0  0  0  0  0  0  0
  1  6  1  0  0  0  0
  2  1  2  0  0  0  0
  3  2  1  0  0  0  0
  3  4  2  0  0  0  0
  4  5  1  0  0  0  0
  5  6  2  0  0  0  0
  5  7  1  0  0  0  0
  6 20  1  0  0  0  0
  7 21  1  0  0  0  0
  7 22  1  0  0  0  0
  8 13  1  0  0  0  0
  8  7  1  0  0  0  0
  9  8  2  0  0  0  0
 10 11  2  0  0  0  0
 10  9  1  0  0  0  0
 11 12  1  0  0  0  0
 12 24  1  0  0  0  0
 12 13  2  0  0  0  0
 13 25  1  0  0  0  0
 14 11  1  0  0  0  0
 15 14  1  0  0  0  0
 16 10  1  0  0  0  0
 17 16  1  0  0  0  0
 17 31  1  0  0  0  0
 18  4  1  0  0  0  0
 18 33  1  0  0  0  0
 19 34  1  0  0  0  0
 19  2  1  0  0  0  0
 23  9  1  0  0  0  0
 26 15  1  0  0  0  0
 27 15  1  0  0  0  0
 28 15  1  0  0  0  0
 29 17  1  0  0  0  0
 30 17  1  0  0  0  0
 32 18  1  0  0  0  0
 35 19  1  0  0  0  0
M  END
