omegacsd_FABSOQ10_01.xyz
 OpenBabel12161914463D

 45 47  0  0  1  0  0  0  0  0999 V2000
    0.3312   -0.3746   -0.6060 S   0  0  0  0  0  0  0  0  0  0  0  0
   -0.7992    0.7401    0.0974 C   0  0  0  0  0  0  0  0  0  0  0  0
   -0.6966    0.7456    1.4571 C   0  0  0  0  0  0  0  0  0  0  0  0
    0.2780   -0.1678    1.9456 C   0  0  0  0  0  0  0  0  0  0  0  0
    0.9160   -0.8568    0.9527 C   0  0  0  0  0  0  0  0  0  0  0  0
    1.9482   -1.9539    1.0809 C   0  0  1  0  0  0  0  0  0  0  0  0
    1.4832   -3.1884    0.5730 O   0  0  0  0  0  0  0  0  0  0  0  0
    3.2868   -1.5455    0.4876 C   0  0  0  0  0  0  0  0  0  0  0  0
    3.9318   -0.4106    0.9663 C   0  0  0  0  0  0  0  0  0  0  0  0
    5.1718   -0.0201    0.4690 C   0  0  0  0  0  0  0  0  0  0  0  0
    5.7782   -0.7750   -0.5343 C   0  0  0  0  0  0  0  0  0  0  0  0
    6.9825   -0.4835   -1.0927 O   0  0  0  0  0  0  0  0  0  0  0  0
    7.6582    0.6608   -0.6196 C   0  0  0  0  0  0  0  0  0  0  0  0
    5.1373   -1.9174   -1.0233 C   0  0  0  0  0  0  0  0  0  0  0  0
    3.9095   -2.2968   -0.5098 C   0  0  0  0  0  0  0  0  0  0  0  0
   -1.7344    1.5923   -0.7327 C   0  0  2  0  0  0  0  0  0  0  0  0
   -1.4509    2.9701   -0.5622 O   0  0  0  0  0  0  0  0  0  0  0  0
   -3.1839    1.3553   -0.3546 C   0  0  0  0  0  0  0  0  0  0  0  0
   -3.7756    0.1366   -0.6619 C   0  0  0  0  0  0  0  0  0  0  0  0
   -5.1037   -0.1241   -0.3355 C   0  0  0  0  0  0  0  0  0  0  0  0
   -5.8534    0.8522    0.3189 C   0  0  0  0  0  0  0  0  0  0  0  0
   -7.1544    0.7052    0.6838 O   0  0  0  0  0  0  0  0  0  0  0  0
   -7.7821   -0.5200    0.3756 C   0  0  0  0  0  0  0  0  0  0  0  0
   -5.2638    2.0793    0.6385 C   0  0  0  0  0  0  0  0  0  0  0  0
   -3.9447    2.3255    0.2996 C   0  0  0  0  0  0  0  0  0  0  0  0
   -1.3011    1.3848    2.0925 H   0  0  0  0  0  0  0  0  0  0  0  0
    0.4984   -0.3193    2.9971 H   0  0  0  0  0  0  0  0  0  0  0  0
    2.1005   -2.1227    2.1573 H   0  0  0  0  0  0  0  0  0  0  0  0
    1.0225   -2.9994   -0.2581 H   0  0  0  0  0  0  0  0  0  0  0  0
    3.4658    0.1852    1.7484 H   0  0  0  0  0  0  0  0  0  0  0  0
    5.6515    0.8655    0.8703 H   0  0  0  0  0  0  0  0  0  0  0  0
    8.5861    0.7205   -1.1905 H   0  0  0  0  0  0  0  0  0  0  0  0
    7.8927    0.5760    0.4499 H   0  0  0  0  0  0  0  0  0  0  0  0
    7.0684    1.5720   -0.7856 H   0  0  0  0  0  0  0  0  0  0  0  0
    5.6275   -2.4919   -1.8036 H   0  0  0  0  0  0  0  0  0  0  0  0
    3.4244   -3.1977   -0.8778 H   0  0  0  0  0  0  0  0  0  0  0  0
   -1.6103    1.3082   -1.7898 H   0  0  0  0  0  0  0  0  0  0  0  0
   -0.5163    3.0997   -0.7716 H   0  0  0  0  0  0  0  0  0  0  0  0
   -3.2003   -0.6325   -1.1747 H   0  0  0  0  0  0  0  0  0  0  0  0
   -5.5384   -1.0830   -0.5960 H   0  0  0  0  0  0  0  0  0  0  0  0
   -7.8053   -0.6997   -0.7075 H   0  0  0  0  0  0  0  0  0  0  0  0
   -8.8028   -0.4368    0.7513 H   0  0  0  0  0  0  0  0  0  0  0  0
   -7.2804   -1.3642    0.8668 H   0  0  0  0  0  0  0  0  0  0  0  0
   -5.8663    2.8245    1.1496 H   0  0  0  0  0  0  0  0  0  0  0  0
   -3.4872    3.2819    0.5355 H   0  0  0  0  0  0  0  0  0  0  0  0
  1  2  1  0  0  0  0
  1  5  1  0  0  0  0
  2  3  2  0  0  0  0
  3  4  1  0  0  0  0
  3 26  1  0  0  0  0
  4 27  1  0  0  0  0
  5  6  1  0  0  0  0
  5  4  2  0  0  0  0
  6 28  1  1  0  0  0
  7  6  1  0  0  0  0
  8  9  1  0  0  0  0
  8  6  1  0  0  0  0
  9 30  1  0  0  0  0
 10 31  1  0  0  0  0
 10  9  2  0  0  0  0
 11 10  1  0  0  0  0
 12 13  1  0  0  0  0
 12 11  1  0  0  0  0
 13 33  1  0  0  0  0
 14 11  2  0  0  0  0
 14 15  1  0  0  0  0
 15  8  2  0  0  0  0
 16 37  1  6  0  0  0
 16 17  1  0  0  0  0
 16 18  1  0  0  0  0
 16  2  1  0  0  0  0
 18 25  1  0  0  0  0
 19 18  2  0  0  0  0
 19 20  1  0  0  0  0
 20 21  2  0  0  0  0
 21 24  1  0  0  0  0
 21 22  1  0  0  0  0
 23 22  1  0  0  0  0
 23 42  1  0  0  0  0
 23 43  1  0  0  0  0
 24 44  1  0  0  0  0
 25 45  1  0  0  0  0
 25 24  2  0  0  0  0
 29  7  1  0  0  0  0
 32 13  1  0  0  0  0
 34 13  1  0  0  0  0
 35 14  1  0  0  0  0
 36 15  1  0  0  0  0
 38 17  1  0  0  0  0
 39 19  1  0  0  0  0
 40 20  1  0  0  0  0
 41 23  1  0  0  0  0
M  END
