omegapdb_2byh_08.xyz
 OpenBabel12161914463D

 40 42  0  0  0  0  0  0  0  0999 V2000
    4.3976    3.7751    1.4784 O   0  0  0  0  0  0  0  0  0  0  0  0
    4.4820    2.5928    1.7504 C   0  0  0  0  0  0  0  0  0  0  0  0
    5.5974    2.0740    2.6327 C   0  0  0  0  0  0  0  0  0  0  0  0
    3.4791    1.6192    1.2217 C   0  0  0  0  0  0  0  0  0  0  0  0
    2.4383    2.0906    0.4165 C   0  0  0  0  0  0  0  0  0  0  0  0
    1.4835    1.2174   -0.0770 C   0  0  0  0  0  0  0  0  0  0  0  0
    1.5426   -0.1486    0.2250 C   0  0  0  0  0  0  0  0  0  0  0  0
    2.5885   -0.6307    1.0152 C   0  0  0  0  0  0  0  0  0  0  0  0
    3.5382    0.2548    1.5024 C   0  0  0  0  0  0  0  0  0  0  0  0
    0.5356   -0.9857   -0.2875 N   0  0  0  0  0  0  0  0  0  0  0  0
    0.2526   -2.2832    0.0642 C   0  0  0  0  0  0  0  0  0  0  0  0
    0.9814   -2.9758    0.7599 O   0  0  0  0  0  0  0  0  0  0  0  0
   -0.9962   -2.8376   -0.5010 C   0  0  0  0  0  0  0  0  0  0  0  0
   -1.1750   -4.2140   -0.7527 C   0  0  0  0  0  0  0  0  0  0  0  0
   -2.3087   -4.4612   -1.3784 N   0  0  0  0  0  0  0  0  0  0  0  0
   -2.8856   -3.2612   -1.5141 N   0  0  0  0  0  0  0  0  0  0  0  0
   -2.1717   -2.2426   -0.9786 C   0  0  0  0  0  0  0  0  0  0  0  0
   -2.6994   -0.8789   -0.8223 C   0  0  0  0  0  0  0  0  0  0  0  0
   -2.3272   -0.1030    0.2777 C   0  0  0  0  0  0  0  0  0  0  0  0
   -2.7649    1.2021    0.4335 C   0  0  0  0  0  0  0  0  0  0  0  0
   -2.2501    2.1462    1.7947 Cl  0  0  0  0  0  0  0  0  0  0  0  0
   -3.6214    1.7711   -0.5131 C   0  0  0  0  0  0  0  0  0  0  0  0
   -4.0201    3.0506   -0.3353 O   0  0  0  0  0  0  0  0  0  0  0  0
   -4.0475    0.9934   -1.5854 C   0  0  0  0  0  0  0  0  0  0  0  0
   -3.6145   -0.3184   -1.7249 C   0  0  0  0  0  0  0  0  0  0  0  0
   -4.0689   -1.1042   -2.7441 O   0  0  0  0  0  0  0  0  0  0  0  0
    6.2323    2.9122    2.9233 H   0  0  0  0  0  0  0  0  0  0  0  0
    6.1967    1.3260    2.1022 H   0  0  0  0  0  0  0  0  0  0  0  0
    5.1888    1.5949    3.5294 H   0  0  0  0  0  0  0  0  0  0  0  0
    2.3961    3.1507    0.1862 H   0  0  0  0  0  0  0  0  0  0  0  0
    0.6802    1.5997   -0.7037 H   0  0  0  0  0  0  0  0  0  0  0  0
    2.6424   -1.6850    1.2447 H   0  0  0  0  0  0  0  0  0  0  0  0
    4.3408   -0.1392    2.1210 H   0  0  0  0  0  0  0  0  0  0  0  0
   -0.1213   -0.5422   -0.9141 H   0  0  0  0  0  0  0  0  0  0  0  0
   -0.4934   -5.0156   -0.4994 H   0  0  0  0  0  0  0  0  0  0  0  0
   -3.7343   -3.1604   -2.0506 H   0  0  0  0  0  0  0  0  0  0  0  0
   -1.6896   -0.5236    1.0466 H   0  0  0  0  0  0  0  0  0  0  0  0
   -4.6110    3.2965   -1.0587 H   0  0  0  0  0  0  0  0  0  0  0  0
   -4.7425    1.4196   -2.3127 H   0  0  0  0  0  0  0  0  0  0  0  0
   -4.6510   -0.5755   -3.3063 H   0  0  0  0  0  0  0  0  0  0  0  0
  1  2  2  0  0  0  0
  2  3  1  0  0  0  0
  3 27  1  0  0  0  0
  3 29  1  0  0  0  0
  4  9  1  0  0  0  0
  4  2  1  0  0  0  0
  5  4  2  0  0  0  0
  6  7  2  0  0  0  0
  6  5  1  0  0  0  0
  7  8  1  0  0  0  0
  8 32  1  0  0  0  0
  8  9  2  0  0  0  0
  9 33  1  0  0  0  0
 10 11  1  0  0  0  0
 10  7  1  0  0  0  0
 11 12  2  0  0  0  0
 13 11  1  0  0  0  0
 14 13  1  0  0  0  0
 14 35  1  0  0  0  0
 15 14  2  0  0  0  0
 16 15  1  0  0  0  0
 16 17  1  0  0  0  0
 17 18  1  0  0  0  0
 17 13  2  0  0  0  0
 18 19  2  0  0  0  0
 19 20  1  0  0  0  0
 19 37  1  0  0  0  0
 20 21  1  0  0  0  0
 22 23  1  0  0  0  0
 22 20  2  0  0  0  0
 24 22  1  0  0  0  0
 25 24  2  0  0  0  0
 25 18  1  0  0  0  0
 26 25  1  0  0  0  0
 28  3  1  0  0  0  0
 30  5  1  0  0  0  0
 31  6  1  0  0  0  0
 34 10  1  0  0  0  0
 36 16  1  0  0  0  0
 38 23  1  0  0  0  0
 39 24  1  0  0  0  0
 40 26  1  0  0  0  0
M  END
