omegacsd_SPIRIL_04.xyz
 OpenBabel12161914463D

 57 60  0  0  1  0  0  0  0  0999 V2000
   -2.1028   -0.2993   -1.0863 C   0  0  0  0  0  0  0  0  0  0  0  0
   -2.8251   -1.1402   -0.0090 C   0  0  2  0  0  0  0  0  0  0  0  0
   -2.6183   -2.6361   -0.3283 C   0  0  0  0  0  0  0  0  0  0  0  0
   -1.5607   -3.2336   -0.3876 O   0  0  0  0  0  0  0  0  0  0  0  0
   -3.8459   -3.1861   -0.5337 N   0  0  0  0  0  0  0  0  0  0  0  0
   -4.9180   -2.2257   -0.5761 C   0  0  0  0  0  0  0  0  0  0  0  0
   -4.2903   -1.0177   -0.0663 N   0  0  0  0  0  0  0  0  0  0  0  0
   -5.0318    0.1612   -0.0228 C   0  0  0  0  0  0  0  0  0  0  0  0
   -4.4927    1.3966    0.3762 C   0  0  0  0  0  0  0  0  0  0  0  0
   -5.2853    2.5364    0.4459 C   0  0  0  0  0  0  0  0  0  0  0  0
   -6.6337    2.4990    0.1096 C   0  0  0  0  0  0  0  0  0  0  0  0
   -7.1795    1.2877   -0.2967 C   0  0  0  0  0  0  0  0  0  0  0  0
   -6.3997    0.1394   -0.3598 C   0  0  0  0  0  0  0  0  0  0  0  0
   -2.2715   -0.8528    1.4020 C   0  0  0  0  0  0  0  0  0  0  0  0
   -0.7424   -0.8613    1.4257 C   0  0  0  0  0  0  0  0  0  0  0  0
   -0.2206    0.0668    0.4283 N   0  0  0  0  0  0  0  0  0  0  0  0
    1.1802    0.4083    0.6041 C   0  0  0  0  0  0  0  0  0  0  0  0
    2.1792   -0.7475    0.4126 C   0  0  0  0  0  0  0  0  0  0  0  0
    3.6054   -0.3080    0.6016 C   0  0  0  0  0  0  0  0  0  0  0  0
    4.3436    0.3225   -0.3149 C   0  0  0  0  0  0  0  0  0  0  0  0
    5.7792    0.6170   -0.0503 C   0  0  0  0  0  0  0  0  0  0  0  0
    6.3917    1.7610   -0.5716 C   0  0  0  0  0  0  0  0  0  0  0  0
    7.7248    2.0515   -0.3109 C   0  0  0  0  0  0  0  0  0  0  0  0
    8.4563    1.1698    0.4681 C   0  0  0  0  0  0  0  0  0  0  0  0
    7.8944    0.0137    0.9888 C   0  0  0  0  0  0  0  0  0  0  0  0
    6.5562   -0.2504    0.7323 C   0  0  0  0  0  0  0  0  0  0  0  0
    9.7471    1.4409    0.7246 F   0  0  0  0  0  0  0  0  0  0  0  0
    3.7669    0.7912   -1.6352 C   0  0  0  0  0  0  0  0  0  0  0  0
   -0.5852   -0.3526   -0.9211 C   0  0  0  0  0  0  0  0  0  0  0  0
   -2.4268    0.7420   -1.0174 H   0  0  0  0  0  0  0  0  0  0  0  0
   -2.3939   -0.6608   -2.0781 H   0  0  0  0  0  0  0  0  0  0  0  0
   -3.9104   -4.0986   -0.9516 H   0  0  0  0  0  0  0  0  0  0  0  0
   -5.2928   -2.0678   -1.6015 H   0  0  0  0  0  0  0  0  0  0  0  0
   -5.7485   -2.5275    0.0748 H   0  0  0  0  0  0  0  0  0  0  0  0
   -3.4428    1.4892    0.6250 H   0  0  0  0  0  0  0  0  0  0  0  0
   -4.8304    3.4700    0.7656 H   0  0  0  0  0  0  0  0  0  0  0  0
   -7.2441    3.3961    0.1617 H   0  0  0  0  0  0  0  0  0  0  0  0
   -8.2314    1.2259   -0.5699 H   0  0  0  0  0  0  0  0  0  0  0  0
   -6.8682   -0.7840   -0.6785 H   0  0  0  0  0  0  0  0  0  0  0  0
   -2.6668   -1.6003    2.0979 H   0  0  0  0  0  0  0  0  0  0  0  0
   -2.6303    0.1200    1.7468 H   0  0  0  0  0  0  0  0  0  0  0  0
   -0.3922   -0.5400    2.4146 H   0  0  0  0  0  0  0  0  0  0  0  0
   -0.3867   -1.8931    1.2654 H   0  0  0  0  0  0  0  0  0  0  0  0
    1.4267    1.2274   -0.0843 H   0  0  0  0  0  0  0  0  0  0  0  0
    1.2901    0.8192    1.6157 H   0  0  0  0  0  0  0  0  0  0  0  0
    2.0384   -1.1758   -0.5900 H   0  0  0  0  0  0  0  0  0  0  0  0
    1.9458   -1.5415    1.1297 H   0  0  0  0  0  0  0  0  0  0  0  0
    4.0121   -0.4290    1.6073 H   0  0  0  0  0  0  0  0  0  0  0  0
    5.8124    2.4454   -1.1857 H   0  0  0  0  0  0  0  0  0  0  0  0
    8.2001    2.9441   -0.7047 H   0  0  0  0  0  0  0  0  0  0  0  0
    8.5012   -0.6534    1.5933 H   0  0  0  0  0  0  0  0  0  0  0  0
    6.1125   -1.1630    1.1225 H   0  0  0  0  0  0  0  0  0  0  0  0
    4.4845    0.6417   -2.4468 H   0  0  0  0  0  0  0  0  0  0  0  0
    2.8543    0.2423   -1.8820 H   0  0  0  0  0  0  0  0  0  0  0  0
    3.5155    1.8592   -1.6038 H   0  0  0  0  0  0  0  0  0  0  0  0
   -0.2304   -1.3710   -1.1506 H   0  0  0  0  0  0  0  0  0  0  0  0
   -0.1202    0.3318   -1.6423 H   0  0  0  0  0  0  0  0  0  0  0  0
  1 30  1  0  0  0  0
  1 29  1  0  0  0  0
  1  2  1  0  0  0  0
  2  3  1  6  0  0  0
  2 14  1  0  0  0  0
  4  3  2  0  0  0  0
  5  3  1  0  0  0  0
  6  5  1  0  0  0  0
  6  7  1  0  0  0  0
  6 34  1  0  0  0  0
  7  8  1  0  0  0  0
  7  2  1  0  0  0  0
  8  9  2  0  0  0  0
  9 10  1  0  0  0  0
  9 35  1  0  0  0  0
 10 36  1  0  0  0  0
 11 37  1  0  0  0  0
 11 10  2  0  0  0  0
 12 11  1  0  0  0  0
 13 12  2  0  0  0  0
 13  8  1  0  0  0  0
 14 15  1  0  0  0  0
 14 41  1  0  0  0  0
 14 40  1  0  0  0  0
 15 42  1  0  0  0  0
 16 17  1  0  0  0  0
 16 15  1  0  0  0  0
 17 45  1  0  0  0  0
 18 19  1  0  0  0  0
 18 17  1  0  0  0  0
 18 47  1  0  0  0  0
 19 48  1  0  0  0  0
 20 21  1  0  0  0  0
 20 19  2  0  0  0  0
 21 26  2  0  0  0  0
 22 23  2  0  0  0  0
 22 21  1  0  0  0  0
 23 24  1  0  0  0  0
 24 27  1  0  0  0  0
 24 25  2  0  0  0  0
 25 51  1  0  0  0  0
 26 25  1  0  0  0  0
 26 52  1  0  0  0  0
 28 55  1  0  0  0  0
 28 20  1  0  0  0  0
 29 16  1  0  0  0  0
 31  1  1  0  0  0  0
 32  5  1  0  0  0  0
 33  6  1  0  0  0  0
 38 12  1  0  0  0  0
 39 13  1  0  0  0  0
 43 15  1  0  0  0  0
 44 17  1  0  0  0  0
 46 18  1  0  0  0  0
 49 22  1  0  0  0  0
 50 23  1  0  0  0  0
 53 28  1  0  0  0  0
 54 28  1  0  0  0  0
 56 29  1  0  0  0  0
 57 29  1  0  0  0  0
M  END
