omegapdb_1qxw_29.xyz
 OpenBabel12161914463D

 36 36  0  0  1  0  0  0  0  0999 V2000
    3.3106    2.4528   -0.4057 C   0  0  0  0  0  0  0  0  0  0  0  0
    3.9087    1.2272   -1.0515 C   0  0  0  0  0  0  0  0  0  0  0  0
    3.1537    1.1159    0.2456 C   0  0  0  0  0  0  0  0  0  0  0  0
    1.8702    0.4748    0.3348 N   0  0  0  0  0  0  0  0  0  0  0  0
    1.9896   -0.9567    0.5508 C   0  0  0  0  0  0  0  0  0  0  0  0
    0.7480   -1.6558    1.1155 C   0  0  0  0  0  0  0  0  0  0  0  0
   -0.5208   -1.5159    0.2425 C   0  0  1  0  0  0  0  0  0  0  0  0
   -1.3806   -2.6519    0.6022 N   0  0  0  0  0  0  0  0  0  0  0  0
   -1.2342   -0.1684    0.3815 C   0  0  0  0  0  0  0  0  0  0  0  0
   -2.2968    0.0250   -0.6996 C   0  0  0  0  0  0  0  0  0  0  0  0
   -3.0292    1.3617   -0.5983 C   0  0  0  0  0  0  0  0  0  0  0  0
   -4.0979    1.5293   -1.6752 C   0  0  0  0  0  0  0  0  0  0  0  0
    1.1179   -3.0102    1.2027 O   0  0  0  0  0  0  0  0  0  0  0  0
    0.4254   -1.1504    2.4003 O   0  0  0  0  0  0  0  0  0  0  0  0
    3.9835    3.1720    0.0542 H   0  0  0  0  0  0  0  0  0  0  0  0
    2.4370    2.9046   -0.8700 H   0  0  0  0  0  0  0  0  0  0  0  0
    3.4268    0.8451   -1.9497 H   0  0  0  0  0  0  0  0  0  0  0  0
    4.9870    1.1009   -1.0326 H   0  0  0  0  0  0  0  0  0  0  0  0
    3.7464    0.9526    1.1449 H   0  0  0  0  0  0  0  0  0  0  0  0
    1.3408    0.6558   -0.5125 H   0  0  0  0  0  0  0  0  0  0  0  0
    2.7551   -1.1171    1.3152 H   0  0  0  0  0  0  0  0  0  0  0  0
    2.3013   -1.5125   -0.3482 H   0  0  0  0  0  0  0  0  0  0  0  0
   -0.2118   -1.6633   -0.8025 H   0  0  0  0  0  0  0  0  0  0  0  0
   -2.0523   -2.8553   -0.1312 H   0  0  0  0  0  0  0  0  0  0  0  0
   -1.9086   -2.4211    1.4415 H   0  0  0  0  0  0  0  0  0  0  0  0
   -1.7029   -0.1169    1.3727 H   0  0  0  0  0  0  0  0  0  0  0  0
   -0.5137    0.6529    0.3485 H   0  0  0  0  0  0  0  0  0  0  0  0
   -3.0315   -0.7905   -0.6404 H   0  0  0  0  0  0  0  0  0  0  0  0
   -1.8330   -0.0564   -1.6940 H   0  0  0  0  0  0  0  0  0  0  0  0
   -3.4901    1.4458    0.3953 H   0  0  0  0  0  0  0  0  0  0  0  0
   -2.3005    2.1809   -0.6709 H   0  0  0  0  0  0  0  0  0  0  0  0
   -4.8535    0.7381   -1.6046 H   0  0  0  0  0  0  0  0  0  0  0  0
   -4.6120    2.4919   -1.5853 H   0  0  0  0  0  0  0  0  0  0  0  0
   -3.6561    1.4768   -2.6772 H   0  0  0  0  0  0  0  0  0  0  0  0
    0.2673   -3.4948    1.1863 H   0  0  0  0  0  0  0  0  0  0  0  0
    0.9558   -1.6671    3.0219 H   0  0  0  0  0  0  0  0  0  0  0  0
  1 15  1  0  0  0  0
  1  3  1  0  0  0  0
  2 18  1  0  0  0  0
  2  1  1  0  0  0  0
  2  3  1  0  0  0  0
  3  4  1  0  0  0  0
  3 19  1  0  0  0  0
  4  5  1  0  0  0  0
  5  6  1  0  0  0  0
  5 21  1  0  0  0  0
  6 13  1  0  0  0  0
  6 14  1  0  0  0  0
  7 23  1  6  0  0  0
  7  9  1  0  0  0  0
  7  8  1  0  0  0  0
  7  6  1  0  0  0  0
  8 25  1  0  0  0  0
  9 26  1  0  0  0  0
 10 28  1  0  0  0  0
 10 11  1  0  0  0  0
 10  9  1  0  0  0  0
 11 30  1  0  0  0  0
 12 32  1  0  0  0  0
 12 33  1  0  0  0  0
 12 11  1  0  0  0  0
 14 36  1  0  0  0  0
 16  1  1  0  0  0  0
 17  2  1  0  0  0  0
 20  4  1  0  0  0  0
 22  5  1  0  0  0  0
 24  8  1  0  0  0  0
 27  9  1  0  0  0  0
 29 10  1  0  0  0  0
 31 11  1  0  0  0  0
 34 12  1  0  0  0  0
 35 13  1  0  0  0  0
M  END
