omegacsd_CDBMPI10_08.xyz
 OpenBabel12161914463D

 46 48  0  0  1  0  0  0  0  0999 V2000
    2.2713   -2.5348   -0.2519 O   0  0  0  0  0  0  0  0  0  0  0  0
    2.3083   -1.3251   -0.0853 C   0  0  0  0  0  0  0  0  0  0  0  0
    1.1698   -0.5203   -0.1219 N   0  0  0  0  0  0  0  0  0  0  0  0
   -0.0256   -1.1030   -0.7626 C   0  0  1  0  0  0  0  0  0  0  0  0
   -1.0766   -0.0060   -0.9416 C   0  0  0  0  0  0  0  0  0  0  0  0
   -1.3236    0.7159    0.2947 N   0  0  0  0  0  0  0  0  0  0  0  0
   -0.1358    1.3539    0.8635 C   0  0  1  0  0  0  0  0  0  0  0  0
    0.8885    0.2545    1.1010 C   0  0  0  0  0  0  0  0  0  0  0  0
    0.3958    2.5080    0.0168 C   0  0  0  0  0  0  0  0  0  0  0  0
   -2.5486    1.2125    0.6722 C   0  0  0  0  0  0  0  0  0  0  0  0
   -2.6541    2.2795    1.2624 O   0  0  0  0  0  0  0  0  0  0  0  0
   -3.7622    0.3901    0.3431 C   0  0  0  0  0  0  0  0  0  0  0  0
   -4.9472    1.0760    0.0786 C   0  0  0  0  0  0  0  0  0  0  0  0
   -6.1093    0.3756   -0.2211 C   0  0  0  0  0  0  0  0  0  0  0  0
   -6.1025   -1.0173   -0.2275 C   0  0  0  0  0  0  0  0  0  0  0  0
   -4.9328   -1.7081    0.0784 C   0  0  0  0  0  0  0  0  0  0  0  0
   -3.7655   -1.0066    0.3642 C   0  0  0  0  0  0  0  0  0  0  0  0
    0.2620   -1.7101   -2.1337 C   0  0  0  0  0  0  0  0  0  0  0  0
    3.6089   -0.6400    0.2147 C   0  0  0  0  0  0  0  0  0  0  0  0
    4.6260   -1.3969    0.7988 C   0  0  0  0  0  0  0  0  0  0  0  0
    5.8551   -0.8149    1.0804 C   0  0  0  0  0  0  0  0  0  0  0  0
    6.0863    0.5201    0.7568 C   0  0  0  0  0  0  0  0  0  0  0  0
    5.0844    1.2720    0.1483 C   0  0  0  0  0  0  0  0  0  0  0  0
    3.8473    0.6938   -0.1203 C   0  0  0  0  0  0  0  0  0  0  0  0
   -0.4254   -1.8816   -0.0961 H   0  0  0  0  0  0  0  0  0  0  0  0
   -0.7159    0.6867   -1.7182 H   0  0  0  0  0  0  0  0  0  0  0  0
   -2.0093   -0.4307   -1.3190 H   0  0  0  0  0  0  0  0  0  0  0  0
   -0.4433    1.7563    1.8330 H   0  0  0  0  0  0  0  0  0  0  0  0
    1.8193    0.6830    1.4771 H   0  0  0  0  0  0  0  0  0  0  0  0
    0.4945   -0.4138    1.8840 H   0  0  0  0  0  0  0  0  0  0  0  0
    0.7352    2.1684   -0.9683 H   0  0  0  0  0  0  0  0  0  0  0  0
    1.2422    2.9887    0.5216 H   0  0  0  0  0  0  0  0  0  0  0  0
   -0.3893    3.2581   -0.1209 H   0  0  0  0  0  0  0  0  0  0  0  0
   -4.9369    2.1624    0.1114 H   0  0  0  0  0  0  0  0  0  0  0  0
   -7.0251    0.9175   -0.4440 H   0  0  0  0  0  0  0  0  0  0  0  0
   -7.0112   -1.5651   -0.4624 H   0  0  0  0  0  0  0  0  0  0  0  0
   -4.9235   -2.7941    0.0790 H   0  0  0  0  0  0  0  0  0  0  0  0
   -2.8574   -1.5508    0.6170 H   0  0  0  0  0  0  0  0  0  0  0  0
    0.9516   -2.5490   -2.0600 H   0  0  0  0  0  0  0  0  0  0  0  0
   -0.6744   -2.0626   -2.5792 H   0  0  0  0  0  0  0  0  0  0  0  0
    0.6951   -0.9539   -2.7985 H   0  0  0  0  0  0  0  0  0  0  0  0
    4.4360   -2.4434    1.0226 H   0  0  0  0  0  0  0  0  0  0  0  0
    6.6394   -1.4077    1.5451 H   0  0  0  0  0  0  0  0  0  0  0  0
    7.0505    0.9717    0.9741 H   0  0  0  0  0  0  0  0  0  0  0  0
    5.2636    2.3122   -0.1079 H   0  0  0  0  0  0  0  0  0  0  0  0
    3.0641    1.2789   -0.5986 H   0  0  0  0  0  0  0  0  0  0  0  0
  1  2  2  0  0  0  0
  2 19  1  0  0  0  0
  3  2  1  0  0  0  0
  3  8  1  0  0  0  0
  4  3  1  0  0  0  0
  4 25  1  1  0  0  0
  5  4  1  0  0  0  0
  5  6  1  0  0  0  0
  6 10  1  0  0  0  0
  6  7  1  0  0  0  0
  7  8  1  0  0  0  0
  7 28  1  1  0  0  0
  8 29  1  0  0  0  0
  8 30  1  0  0  0  0
  9 32  1  0  0  0  0
  9  7  1  0  0  0  0
 10 11  2  0  0  0  0
 12 17  1  0  0  0  0
 12 10  1  0  0  0  0
 13 34  1  0  0  0  0
 13 12  2  0  0  0  0
 14 13  1  0  0  0  0
 15 14  2  0  0  0  0
 15 16  1  0  0  0  0
 16 37  1  0  0  0  0
 16 17  2  0  0  0  0
 17 38  1  0  0  0  0
 18 39  1  0  0  0  0
 18  4  1  0  0  0  0
 19 20  2  0  0  0  0
 20 42  1  0  0  0  0
 20 21  1  0  0  0  0
 21 43  1  0  0  0  0
 22 44  1  0  0  0  0
 22 21  2  0  0  0  0
 23 22  1  0  0  0  0
 24 23  2  0  0  0  0
 24 19  1  0  0  0  0
 26  5  1  0  0  0  0
 27  5  1  0  0  0  0
 31  9  1  0  0  0  0
 33  9  1  0  0  0  0
 35 14  1  0  0  0  0
 36 15  1  0  0  0  0
 40 18  1  0  0  0  0
 41 18  1  0  0  0  0
 45 23  1  0  0  0  0
 46 24  1  0  0  0  0
M  END
