omegapdb_1m5f_12.xyz
 OpenBabel12161914463D

 25 25  0  0  1  0  0  0  0  0999 V2000
   -0.1780   -2.5654   -1.4977 O   0  0  0  0  0  0  0  0  0  0  0  0
   -1.5111   -2.3381   -1.4163 C   0  0  0  0  0  0  0  0  0  0  0  0
   -2.3242   -3.0529   -1.9357 O   0  0  0  0  0  0  0  0  0  0  0  0
   -1.8182   -1.1101   -0.6334 C   0  0  0  0  0  0  0  0  0  0  0  0
   -3.0319   -0.6305   -0.7218 N   0  0  0  0  0  0  0  0  0  0  0  0
   -3.0430    0.4898    0.0588 O   0  0  0  0  0  0  0  0  0  0  0  0
   -1.8377    0.6722    0.6228 C   0  0  0  0  0  0  0  0  0  0  0  0
   -0.9883   -0.3198    0.2240 C   0  0  0  0  0  0  0  0  0  0  0  0
    0.4594   -0.4199    0.5881 C   0  0  0  0  0  0  0  0  0  0  0  0
    1.2907    0.6489   -0.1424 C   0  0  2  0  0  0  0  0  0  0  0  0
    1.1694    0.5008   -1.5796 N   0  0  0  0  0  0  0  0  0  0  0  0
    2.7395    0.6565    0.3295 C   0  0  0  0  0  0  0  0  0  0  0  0
    3.7063    0.6872   -0.3944 O   0  0  0  0  0  0  0  0  0  0  0  0
    2.8407    0.6660    1.6731 O   0  0  0  0  0  0  0  0  0  0  0  0
   -1.6948    1.8653    1.5019 C   0  0  0  0  0  0  0  0  0  0  0  0
   -0.0797   -3.3749   -2.0265 H   0  0  0  0  0  0  0  0  0  0  0  0
    0.8397   -1.4123    0.3340 H   0  0  0  0  0  0  0  0  0  0  0  0
    0.5867   -0.2959    1.6691 H   0  0  0  0  0  0  0  0  0  0  0  0
    0.8917    1.6344    0.1405 H   0  0  0  0  0  0  0  0  0  0  0  0
    1.9594    0.9478   -2.0347 H   0  0  0  0  0  0  0  0  0  0  0  0
    1.2146   -0.4873   -1.8151 H   0  0  0  0  0  0  0  0  0  0  0  0
    3.7915    0.6967    1.8707 H   0  0  0  0  0  0  0  0  0  0  0  0
   -1.6351    2.7839    0.9071 H   0  0  0  0  0  0  0  0  0  0  0  0
   -2.5572    1.9619    2.1658 H   0  0  0  0  0  0  0  0  0  0  0  0
   -0.7907    1.7961    2.1121 H   0  0  0  0  0  0  0  0  0  0  0  0
  1  2  1  0  0  0  0
  2  4  1  0  0  0  0
  3  2  2  0  0  0  0
  4  8  1  0  0  0  0
  5  4  2  0  0  0  0
  5  6  1  0  0  0  0
  6  7  1  0  0  0  0
  7 15  1  0  0  0  0
  8  9  1  0  0  0  0
  8  7  2  0  0  0  0
  9 18  1  0  0  0  0
 10 19  1  1  0  0  0
 10 12  1  0  0  0  0
 10  9  1  0  0  0  0
 11 10  1  0  0  0  0
 12 14  1  0  0  0  0
 13 12  2  0  0  0  0
 14 22  1  0  0  0  0
 15 25  1  0  0  0  0
 15 24  1  0  0  0  0
 16  1  1  0  0  0  0
 17  9  1  0  0  0  0
 20 11  1  0  0  0  0
 21 11  1  0  0  0  0
 23 15  1  0  0  0  0
M  END
