omegapdb_1z1r_21.xyz
 OpenBabel12161914463D

 66 68  0  0  1  0  0  0  0  0999 V2000
    0.6899   -0.9406   -1.2376 C   0  0  2  0  0  0  0  0  0  0  0  0
    0.2936   -2.2003   -2.0323 C   0  0  0  0  0  0  0  0  0  0  0  0
   -0.9620   -2.8397   -1.4815 C   0  0  0  0  0  0  0  0  0  0  0  0
   -1.0451   -3.2032   -0.1345 C   0  0  0  0  0  0  0  0  0  0  0  0
   -2.2499   -3.6036    0.4247 C   0  0  0  0  0  0  0  0  0  0  0  0
   -3.3897   -3.6892   -0.3730 C   0  0  0  0  0  0  0  0  0  0  0  0
   -3.3009   -3.4344   -1.7390 C   0  0  0  0  0  0  0  0  0  0  0  0
   -2.1000   -2.9897   -2.2759 C   0  0  0  0  0  0  0  0  0  0  0  0
   -4.6100   -4.0273    0.1455 O   0  0  0  0  0  0  0  0  0  0  0  0
   -5.1173   -3.2108    1.1970 C   0  0  0  0  0  0  0  0  0  0  0  0
   -5.6192   -1.8453    0.7299 C   0  0  0  0  0  0  0  0  0  0  0  0
   -4.5529   -0.7960    0.4169 C   0  0  0  0  0  0  0  0  0  0  0  0
   -3.8775   -0.2581    1.6748 C   0  0  0  0  0  0  0  0  0  0  0  0
   -4.1725   -0.6503    2.7925 O   0  0  0  0  0  0  0  0  0  0  0  0
   -2.9723    0.7596    1.5055 N   0  0  0  0  0  0  0  0  0  0  0  0
   -2.1958    1.0308    0.3219 C   0  0  2  0  0  0  0  0  0  0  0  0
   -0.9519    0.1282    0.2516 C   0  0  0  0  0  0  0  0  0  0  0  0
   -0.4269   -0.3324    1.2514 O   0  0  0  0  0  0  0  0  0  0  0  0
   -0.4441   -0.0606   -1.0034 N   0  0  0  0  0  0  0  0  0  0  0  0
   -1.7668    2.5147    0.2844 C   0  0  0  0  0  0  0  0  0  0  0  0
   -0.8855    2.9127    1.4630 C   0  0  0  0  0  0  0  0  0  0  0  0
   -1.2182    2.6779    2.6180 O   0  0  0  0  0  0  0  0  0  0  0  0
    0.2551    3.5867    1.1745 N   0  0  0  0  0  0  0  0  0  0  0  0
    1.8178   -0.1585   -1.9126 C   0  0  2  0  0  0  0  0  0  0  0  0
    2.9345   -0.9760   -2.2250 O   0  0  0  0  0  0  0  0  0  0  0  0
    2.2482    1.0306   -1.0555 C   0  0  0  0  0  0  0  0  0  0  0  0
    3.2352    1.8172   -1.7833 N   0  0  0  0  0  0  0  0  0  0  0  0
    3.8920    3.1424   -1.0450 S   0  0  0  0  0  0  0  0  0  0  0  0
    2.7737    3.8824   -0.4827 O   0  0  0  0  0  0  0  0  0  0  0  0
    4.7988    3.7389   -2.0058 O   0  0  0  0  0  0  0  0  0  0  0  0
    4.8605    2.5042    0.2975 C   0  0  0  0  0  0  0  0  0  0  0  0
    4.3072    2.4007    1.5700 C   0  0  0  0  0  0  0  0  0  0  0  0
    5.0601    1.8428    2.5967 C   0  0  0  0  0  0  0  0  0  0  0  0
    6.3575    1.4007    2.3498 C   0  0  0  0  0  0  0  0  0  0  0  0
    6.9079    1.5273    1.0764 C   0  0  0  0  0  0  0  0  0  0  0  0
    6.1649    2.0891    0.0442 C   0  0  0  0  0  0  0  0  0  0  0  0
    1.0168   -1.2415   -0.2362 H   0  0  0  0  0  0  0  0  0  0  0  0
    0.1374   -1.9304   -3.0858 H   0  0  0  0  0  0  0  0  0  0  0  0
    1.1346   -2.9030   -2.0126 H   0  0  0  0  0  0  0  0  0  0  0  0
   -0.1718   -3.1358    0.5107 H   0  0  0  0  0  0  0  0  0  0  0  0
   -2.3153   -3.8418    1.4841 H   0  0  0  0  0  0  0  0  0  0  0  0
   -4.1972   -3.5346   -2.3464 H   0  0  0  0  0  0  0  0  0  0  0  0
   -2.0537   -2.7343   -3.3321 H   0  0  0  0  0  0  0  0  0  0  0  0
   -5.9548   -3.7857    1.6030 H   0  0  0  0  0  0  0  0  0  0  0  0
   -4.3770   -3.0854    1.9974 H   0  0  0  0  0  0  0  0  0  0  0  0
   -6.2540   -1.4407    1.5273 H   0  0  0  0  0  0  0  0  0  0  0  0
   -6.2466   -2.0015   -0.1545 H   0  0  0  0  0  0  0  0  0  0  0  0
   -3.7915   -1.1752   -0.2748 H   0  0  0  0  0  0  0  0  0  0  0  0
   -5.0320    0.0507   -0.0937 H   0  0  0  0  0  0  0  0  0  0  0  0
   -2.5149    1.0483    2.3667 H   0  0  0  0  0  0  0  0  0  0  0  0
   -2.8247    0.8569   -0.5619 H   0  0  0  0  0  0  0  0  0  0  0  0
   -0.9894    0.2243   -1.8041 H   0  0  0  0  0  0  0  0  0  0  0  0
   -2.6792    3.1161    0.3540 H   0  0  0  0  0  0  0  0  0  0  0  0
   -1.2781    2.7499   -0.6687 H   0  0  0  0  0  0  0  0  0  0  0  0
    0.6746    3.6655    0.2580 H   0  0  0  0  0  0  0  0  0  0  0  0
    0.8338    3.8383    1.9619 H   0  0  0  0  0  0  0  0  0  0  0  0
    1.4570    0.2150   -2.8797 H   0  0  0  0  0  0  0  0  0  0  0  0
    3.3445   -1.2494   -1.3915 H   0  0  0  0  0  0  0  0  0  0  0  0
    2.6485    0.6702   -0.0921 H   0  0  0  0  0  0  0  0  0  0  0  0
    1.4004    1.6797   -0.8301 H   0  0  0  0  0  0  0  0  0  0  0  0
    3.9010    1.2820   -2.3279 H   0  0  0  0  0  0  0  0  0  0  0  0
    3.3013    2.7657    1.7511 H   0  0  0  0  0  0  0  0  0  0  0  0
    4.6337    1.7518    3.5912 H   0  0  0  0  0  0  0  0  0  0  0  0
    6.9444    0.9625    3.1528 H   0  0  0  0  0  0  0  0  0  0  0  0
    7.9226    1.1889    0.8874 H   0  0  0  0  0  0  0  0  0  0  0  0
    6.5904    2.2216   -0.9470 H   0  0  0  0  0  0  0  0  0  0  0  0
  1 19  1  0  0  0  0
  1 37  1  1  0  0  0
  2 39  1  0  0  0  0
  2  3  1  0  0  0  0
  2  1  1  0  0  0  0
  3  4  2  0  0  0  0
  4  5  1  0  0  0  0
  4 40  1  0  0  0  0
  5 41  1  0  0  0  0
  6  9  1  0  0  0  0
  6  5  2  0  0  0  0
  7  6  1  0  0  0  0
  8  7  2  0  0  0  0
  8  3  1  0  0  0  0
  9 10  1  0  0  0  0
 10 44  1  0  0  0  0
 10 45  1  0  0  0  0
 11 10  1  0  0  0  0
 11 46  1  0  0  0  0
 12 11  1  0  0  0  0
 12 13  1  0  0  0  0
 13 14  2  0  0  0  0
 15 13  1  0  0  0  0
 15 50  1  0  0  0  0
 16 51  1  6  0  0  0
 16 15  1  0  0  0  0
 17 16  1  0  0  0  0
 17 18  2  0  0  0  0
 19 17  1  0  0  0  0
 20 16  1  0  0  0  0
 20 53  1  0  0  0  0
 20 21  1  0  0  0  0
 21 22  2  0  0  0  0
 23 21  1  0  0  0  0
 23 56  1  0  0  0  0
 24 57  1  6  0  0  0
 24  1  1  0  0  0  0
 24 26  1  0  0  0  0
 25 24  1  0  0  0  0
 25 58  1  0  0  0  0
 26 60  1  0  0  0  0
 26 59  1  0  0  0  0
 27 26  1  0  0  0  0
 27 28  1  0  0  0  0
 28 29  2  0  0  0  0
 28 31  1  0  0  0  0
 30 28  2  0  0  0  0
 31 32  1  0  0  0  0
 32 62  1  0  0  0  0
 32 33  2  0  0  0  0
 33 63  1  0  0  0  0
 34 33  1  0  0  0  0
 34 64  1  0  0  0  0
 35 34  2  0  0  0  0
 36 31  2  0  0  0  0
 36 35  1  0  0  0  0
 38  2  1  0  0  0  0
 42  7  1  0  0  0  0
 43  8  1  0  0  0  0
 47 11  1  0  0  0  0
 48 12  1  0  0  0  0
 49 12  1  0  0  0  0
 52 19  1  0  0  0  0
 54 20  1  0  0  0  0
 55 23  1  0  0  0  0
 61 27  1  0  0  0  0
 65 35  1  0  0  0  0
 66 36  1  0  0  0  0
M  END
