omegacsd_CEJTIU_08.xyz
 OpenBabel12161914463D

 41 42  0  0  0  0  0  0  0  0999 V2000
   -4.9563   -1.7005    0.3336 C   0  0  0  0  0  0  0  0  0  0  0  0
   -4.3432   -0.5213    0.8988 N   0  0  0  0  0  0  0  0  0  0  0  0
   -5.0525    0.2645    1.8819 C   0  0  0  0  0  0  0  0  0  0  0  0
   -3.1489   -0.0607    0.3844 C   0  0  0  0  0  0  0  0  0  0  0  0
   -2.5550    1.1279    0.8485 C   0  0  0  0  0  0  0  0  0  0  0  0
   -1.3377    1.5587    0.3477 C   0  0  0  0  0  0  0  0  0  0  0  0
   -0.6660    0.8396   -0.6414 C   0  0  0  0  0  0  0  0  0  0  0  0
   -1.2487   -0.3268   -1.1314 C   0  0  0  0  0  0  0  0  0  0  0  0
   -2.4632   -0.7638   -0.6246 C   0  0  0  0  0  0  0  0  0  0  0  0
    0.5891    1.3140   -1.0650 N   0  0  0  0  0  0  0  0  0  0  0  0
    1.2428    0.9678   -2.2181 C   0  0  0  0  0  0  0  0  0  0  0  0
    0.8040    0.2392   -3.0862 O   0  0  0  0  0  0  0  0  0  0  0  0
    2.4860    1.6007   -2.3966 N   0  0  0  0  0  0  0  0  0  0  0  0
    3.5703    1.9008   -1.5663 C   0  0  0  0  0  0  0  0  0  0  0  0
    4.5898    2.3043   -2.0860 O   0  0  0  0  0  0  0  0  0  0  0  0
    3.4878    1.6642   -0.0645 C   0  0  0  0  0  0  0  0  0  0  0  0
    3.4053    0.1895    0.2853 C   0  0  0  0  0  0  0  0  0  0  0  0
    4.3170   -0.7001   -0.2854 C   0  0  0  0  0  0  0  0  0  0  0  0
    4.2733   -2.0555    0.0231 C   0  0  0  0  0  0  0  0  0  0  0  0
    3.3142   -2.5401    0.9076 C   0  0  0  0  0  0  0  0  0  0  0  0
    2.4050   -1.6603    1.4853 C   0  0  0  0  0  0  0  0  0  0  0  0
    2.4547   -0.3033    1.1761 C   0  0  0  0  0  0  0  0  0  0  0  0
   -4.3070   -2.5796    0.4392 H   0  0  0  0  0  0  0  0  0  0  0  0
   -5.8944   -1.9085    0.8554 H   0  0  0  0  0  0  0  0  0  0  0  0
   -5.1790   -1.5720   -0.7352 H   0  0  0  0  0  0  0  0  0  0  0  0
   -4.4470    0.4191    2.7849 H   0  0  0  0  0  0  0  0  0  0  0  0
   -5.9660   -0.2609    2.1749 H   0  0  0  0  0  0  0  0  0  0  0  0
   -5.3361    1.2523    1.4912 H   0  0  0  0  0  0  0  0  0  0  0  0
   -3.0416    1.7265    1.6095 H   0  0  0  0  0  0  0  0  0  0  0  0
   -0.8979    2.4768    0.7326 H   0  0  0  0  0  0  0  0  0  0  0  0
   -0.7538   -0.8909   -1.9123 H   0  0  0  0  0  0  0  0  0  0  0  0
   -2.8844   -1.6752   -1.0345 H   0  0  0  0  0  0  0  0  0  0  0  0
    0.9374    2.1163   -0.5665 H   0  0  0  0  0  0  0  0  0  0  0  0
    2.7858    1.5514   -3.3639 H   0  0  0  0  0  0  0  0  0  0  0  0
    4.4189    2.0920    0.3198 H   0  0  0  0  0  0  0  0  0  0  0  0
    2.6735    2.2280    0.4021 H   0  0  0  0  0  0  0  0  0  0  0  0
    5.0690   -0.3204   -0.9760 H   0  0  0  0  0  0  0  0  0  0  0  0
    4.9889   -2.7355   -0.4324 H   0  0  0  0  0  0  0  0  0  0  0  0
    3.2787   -3.6004    1.1472 H   0  0  0  0  0  0  0  0  0  0  0  0
    1.6536   -2.0319    2.1787 H   0  0  0  0  0  0  0  0  0  0  0  0
    1.7335    0.3740    1.6292 H   0  0  0  0  0  0  0  0  0  0  0  0
  1 23  1  0  0  0  0
  1 24  1  0  0  0  0
  1  2  1  0  0  0  0
  2  3  1  0  0  0  0
  3 27  1  0  0  0  0
  3 26  1  0  0  0  0
  4  5  1  0  0  0  0
  4  2  1  0  0  0  0
  5 29  1  0  0  0  0
  6 30  1  0  0  0  0
  6  5  2  0  0  0  0
  7  6  1  0  0  0  0
  8  7  2  0  0  0  0
  8  9  1  0  0  0  0
  9  4  2  0  0  0  0
 10  7  1  0  0  0  0
 10 33  1  0  0  0  0
 11 10  1  0  0  0  0
 12 11  2  0  0  0  0
 13 11  1  0  0  0  0
 13 14  1  0  0  0  0
 14 16  1  0  0  0  0
 15 14  2  0  0  0  0
 16 17  1  0  0  0  0
 16 35  1  0  0  0  0
 16 36  1  0  0  0  0
 17 22  2  0  0  0  0
 18 19  2  0  0  0  0
 18 17  1  0  0  0  0
 19 20  1  0  0  0  0
 20 39  1  0  0  0  0
 20 21  2  0  0  0  0
 21 40  1  0  0  0  0
 22 21  1  0  0  0  0
 22 41  1  0  0  0  0
 25  1  1  0  0  0  0
 28  3  1  0  0  0  0
 31  8  1  0  0  0  0
 32  9  1  0  0  0  0
 34 13  1  0  0  0  0
 37 18  1  0  0  0  0
 38 19  1  0  0  0  0
M  END
