omegapdb_1qxw_28.xyz
 OpenBabel12161914463D

 36 36  0  0  1  0  0  0  0  0999 V2000
    4.4457    1.6566   -0.6402 C   0  0  0  0  0  0  0  0  0  0  0  0
    4.8191    0.3669    0.0463 C   0  0  0  0  0  0  0  0  0  0  0  0
    3.5478    0.4660   -0.7544 C   0  0  0  0  0  0  0  0  0  0  0  0
    2.2557    0.4624   -0.1326 N   0  0  0  0  0  0  0  0  0  0  0  0
    1.8680   -0.8471    0.3618 C   0  0  0  0  0  0  0  0  0  0  0  0
    0.5118   -0.7850    1.0507 C   0  0  0  0  0  0  0  0  0  0  0  0
   -0.6470   -0.3844    0.1151 C   0  0  1  0  0  0  0  0  0  0  0  0
   -0.8127   -1.3031   -1.0118 N   0  0  0  0  0  0  0  0  0  0  0  0
   -1.9580   -0.2883    0.9078 C   0  0  0  0  0  0  0  0  0  0  0  0
   -3.0513    0.5661    0.2505 C   0  0  0  0  0  0  0  0  0  0  0  0
   -3.5528    0.0732   -1.1072 C   0  0  0  0  0  0  0  0  0  0  0  0
   -4.7730    0.8537   -1.5886 C   0  0  0  0  0  0  0  0  0  0  0  0
    0.2926   -2.0789    1.5900 O   0  0  0  0  0  0  0  0  0  0  0  0
    0.5794    0.1721    2.0979 O   0  0  0  0  0  0  0  0  0  0  0  0
    5.0163    1.9628   -1.5136 H   0  0  0  0  0  0  0  0  0  0  0  0
    4.1178    2.4865   -0.0187 H   0  0  0  0  0  0  0  0  0  0  0  0
    5.6403   -0.2163   -0.3595 H   0  0  0  0  0  0  0  0  0  0  0  0
    4.7283    0.3284    1.1304 H   0  0  0  0  0  0  0  0  0  0  0  0
    3.5466   -0.0390   -1.7197 H   0  0  0  0  0  0  0  0  0  0  0  0
    2.2277    1.1171    0.6439 H   0  0  0  0  0  0  0  0  0  0  0  0
    2.5726   -1.2497    1.1059 H   0  0  0  0  0  0  0  0  0  0  0  0
    1.8359   -1.5658   -0.4643 H   0  0  0  0  0  0  0  0  0  0  0  0
   -0.4152    0.6081   -0.2916 H   0  0  0  0  0  0  0  0  0  0  0  0
   -0.7345   -2.2597   -0.6732 H   0  0  0  0  0  0  0  0  0  0  0  0
   -0.0747   -1.1649   -1.6964 H   0  0  0  0  0  0  0  0  0  0  0  0
   -1.7491    0.1262    1.9001 H   0  0  0  0  0  0  0  0  0  0  0  0
   -2.3475   -1.3064    1.0600 H   0  0  0  0  0  0  0  0  0  0  0  0
   -3.9028    0.6099    0.9448 H   0  0  0  0  0  0  0  0  0  0  0  0
   -2.6916    1.6011    0.1485 H   0  0  0  0  0  0  0  0  0  0  0  0
   -3.8070   -0.9919   -1.0289 H   0  0  0  0  0  0  0  0  0  0  0  0
   -2.7505    0.1458   -1.8480 H   0  0  0  0  0  0  0  0  0  0  0  0
   -5.6144    0.7436   -0.8934 H   0  0  0  0  0  0  0  0  0  0  0  0
   -4.5494    1.9243   -1.6718 H   0  0  0  0  0  0  0  0  0  0  0  0
   -5.1035    0.5043   -2.5726 H   0  0  0  0  0  0  0  0  0  0  0  0
   -0.4589   -2.0054    2.1962 H   0  0  0  0  0  0  0  0  0  0  0  0
    0.9879   -0.2893    2.8445 H   0  0  0  0  0  0  0  0  0  0  0  0
  1 16  1  0  0  0  0
  1  2  1  0  0  0  0
  2 18  1  0  0  0  0
  3  1  1  0  0  0  0
  3  4  1  0  0  0  0
  3  2  1  0  0  0  0
  4  5  1  0  0  0  0
  4 20  1  0  0  0  0
  5  6  1  0  0  0  0
  5 21  1  0  0  0  0
  6 13  1  0  0  0  0
  6 14  1  0  0  0  0
  7 23  1  6  0  0  0
  7  9  1  0  0  0  0
  7  6  1  0  0  0  0
  8 24  1  0  0  0  0
  8  7  1  0  0  0  0
  9 27  1  0  0  0  0
  9 26  1  0  0  0  0
 10  9  1  0  0  0  0
 10 28  1  0  0  0  0
 11 30  1  0  0  0  0
 11 10  1  0  0  0  0
 12 11  1  0  0  0  0
 12 32  1  0  0  0  0
 13 35  1  0  0  0  0
 14 36  1  0  0  0  0
 15  1  1  0  0  0  0
 17  2  1  0  0  0  0
 19  3  1  0  0  0  0
 22  5  1  0  0  0  0
 25  8  1  0  0  0  0
 29 10  1  0  0  0  0
 31 11  1  0  0  0  0
 33 12  1  0  0  0  0
 34 12  1  0  0  0  0
M  END
