omegapdb_1gs5_12.xyz
 OpenBabel12161914463D

 24 23  0  0  1  0  0  0  0  0999 V2000
   -0.4812   -0.9821   -0.4687 C   0  0  2  0  0  0  0  0  0  0  0  0
   -1.0200   -1.8430    0.6575 C   0  0  0  0  0  0  0  0  0  0  0  0
   -1.9742   -1.5649    1.3451 O   0  0  0  0  0  0  0  0  0  0  0  0
   -0.3040   -2.9657    0.8245 O   0  0  0  0  0  0  0  0  0  0  0  0
    1.0301   -0.7421   -0.3303 C   0  0  0  0  0  0  0  0  0  0  0  0
    1.4065   -0.0296    0.9610 C   0  0  0  0  0  0  0  0  0  0  0  0
    2.8801    0.3397    0.9765 C   0  0  0  0  0  0  0  0  0  0  0  0
    3.6494    0.1026    0.0846 O   0  0  0  0  0  0  0  0  0  0  0  0
    3.3058    0.9797    2.0903 O   0  0  0  0  0  0  0  0  0  0  0  0
   -1.2468    0.2430   -0.4837 N   0  0  0  0  0  0  0  0  0  0  0  0
   -1.2702    1.0381   -1.5927 C   0  0  0  0  0  0  0  0  0  0  0  0
   -0.5725    0.8034   -2.5678 O   0  0  0  0  0  0  0  0  0  0  0  0
   -2.2139    2.2204   -1.4980 C   0  0  0  0  0  0  0  0  0  0  0  0
   -0.6410   -1.5209   -1.4120 H   0  0  0  0  0  0  0  0  0  0  0  0
   -0.7158   -3.4447    1.5633 H   0  0  0  0  0  0  0  0  0  0  0  0
    1.3394   -0.1415   -1.1887 H   0  0  0  0  0  0  0  0  0  0  0  0
    1.5524   -1.7003   -0.3943 H   0  0  0  0  0  0  0  0  0  0  0  0
    1.1927   -0.6614    1.8356 H   0  0  0  0  0  0  0  0  0  0  0  0
    0.8139    0.8869    1.0840 H   0  0  0  0  0  0  0  0  0  0  0  0
    2.5728    1.0993    2.7098 H   0  0  0  0  0  0  0  0  0  0  0  0
   -1.9588    0.3353    0.2298 H   0  0  0  0  0  0  0  0  0  0  0  0
   -3.2478    1.8869   -1.3540 H   0  0  0  0  0  0  0  0  0  0  0  0
   -2.1497    2.7980   -2.4204 H   0  0  0  0  0  0  0  0  0  0  0  0
   -1.9477    2.8629   -0.6514 H   0  0  0  0  0  0  0  0  0  0  0  0
  1 14  1  6  0  0  0
  1  5  1  0  0  0  0
  1  2  1  0  0  0  0
  2  4  1  0  0  0  0
  2  3  2  0  0  0  0
  4 15  1  0  0  0  0
  5  6  1  0  0  0  0
  6  7  1  0  0  0  0
  6 19  1  0  0  0  0
  6 18  1  0  0  0  0
  7  9  1  0  0  0  0
  8  7  2  0  0  0  0
  9 20  1  0  0  0  0
 10  1  1  0  0  0  0
 10 21  1  0  0  0  0
 11 13  1  0  0  0  0
 11 10  1  0  0  0  0
 12 11  2  0  0  0  0
 13 22  1  0  0  0  0
 13 24  1  0  0  0  0
 16  5  1  0  0  0  0
 17  5  1  0  0  0  0
 23 13  1  0  0  0  0
M  END
