omegacsd_FABSOQ10_12.xyz
 OpenBabel12161914463D

 45 47  0  0  1  0  0  0  0  0999 V2000
    0.6573   -0.7920   -1.2676 S   0  0  0  0  0  0  0  0  0  0  0  0
   -0.9407   -0.4493   -0.6839 C   0  0  0  0  0  0  0  0  0  0  0  0
   -1.1805   -1.0864    0.4991 C   0  0  0  0  0  0  0  0  0  0  0  0
   -0.0791   -1.8730    0.9341 C   0  0  0  0  0  0  0  0  0  0  0  0
    0.9931   -1.8166    0.0861 C   0  0  0  0  0  0  0  0  0  0  0  0
    2.2966   -2.5687    0.1982 C   0  0  1  0  0  0  0  0  0  0  0  0
    2.3914   -3.6071   -0.7574 O   0  0  0  0  0  0  0  0  0  0  0  0
    3.5006   -1.6410    0.1765 C   0  0  0  0  0  0  0  0  0  0  0  0
    3.5058   -0.4836    0.9470 C   0  0  0  0  0  0  0  0  0  0  0  0
    4.6054    0.3705    0.9564 C   0  0  0  0  0  0  0  0  0  0  0  0
    5.7242    0.0605    0.1844 C   0  0  0  0  0  0  0  0  0  0  0  0
    6.8462    0.8247    0.1198 O   0  0  0  0  0  0  0  0  0  0  0  0
    6.8543    2.0254    0.8605 C   0  0  0  0  0  0  0  0  0  0  0  0
    5.7345   -1.1101   -0.5805 C   0  0  0  0  0  0  0  0  0  0  0  0
    4.6339   -1.9486   -0.5776 C   0  0  0  0  0  0  0  0  0  0  0  0
   -1.8499    0.4111   -1.5219 C   0  0  2  0  0  0  0  0  0  0  0  0
   -1.1927    1.6434   -1.7685 O   0  0  0  0  0  0  0  0  0  0  0  0
   -3.1981    0.5911   -0.8572 C   0  0  0  0  0  0  0  0  0  0  0  0
   -4.2152   -0.3328   -1.1020 C   0  0  0  0  0  0  0  0  0  0  0  0
   -5.4346   -0.2361   -0.4543 C   0  0  0  0  0  0  0  0  0  0  0  0
   -5.6573    0.8011    0.4594 C   0  0  0  0  0  0  0  0  0  0  0  0
   -6.8793    0.8076    1.0546 O   0  0  0  0  0  0  0  0  0  0  0  0
   -7.1537    1.8370    1.9795 C   0  0  0  0  0  0  0  0  0  0  0  0
   -4.6515    1.7365    0.7060 C   0  0  0  0  0  0  0  0  0  0  0  0
   -3.4306    1.6243    0.0434 C   0  0  0  0  0  0  0  0  0  0  0  0
   -2.1182   -0.9854    1.0385 H   0  0  0  0  0  0  0  0  0  0  0  0
   -0.0762   -2.4682    1.8405 H   0  0  0  0  0  0  0  0  0  0  0  0
    2.2861   -3.0823    1.1698 H   0  0  0  0  0  0  0  0  0  0  0  0
    2.1352   -3.2314   -1.6121 H   0  0  0  0  0  0  0  0  0  0  0  0
    2.6382   -0.2333    1.5554 H   0  0  0  0  0  0  0  0  0  0  0  0
    4.5743    1.2702    1.5607 H   0  0  0  0  0  0  0  0  0  0  0  0
    6.0513    2.7014    0.5374 H   0  0  0  0  0  0  0  0  0  0  0  0
    6.7505    1.8335    1.9369 H   0  0  0  0  0  0  0  0  0  0  0  0
    7.8210    2.4927    0.6676 H   0  0  0  0  0  0  0  0  0  0  0  0
    6.6191   -1.3358   -1.1689 H   0  0  0  0  0  0  0  0  0  0  0  0
    4.6451   -2.8642   -1.1638 H   0  0  0  0  0  0  0  0  0  0  0  0
   -2.0137   -0.1238   -2.4752 H   0  0  0  0  0  0  0  0  0  0  0  0
   -1.7354    2.1294   -2.4032 H   0  0  0  0  0  0  0  0  0  0  0  0
   -4.0429   -1.1410   -1.8113 H   0  0  0  0  0  0  0  0  0  0  0  0
   -6.2329   -0.9506   -0.6308 H   0  0  0  0  0  0  0  0  0  0  0  0
   -8.1683    1.6553    2.3382 H   0  0  0  0  0  0  0  0  0  0  0  0
   -7.1076    2.8262    1.5048 H   0  0  0  0  0  0  0  0  0  0  0  0
   -6.4562    1.8128    2.8276 H   0  0  0  0  0  0  0  0  0  0  0  0
   -4.8053    2.5521    1.4056 H   0  0  0  0  0  0  0  0  0  0  0  0
   -2.6444    2.3546    0.2252 H   0  0  0  0  0  0  0  0  0  0  0  0
  1  2  1  0  0  0  0
  1  5  1  0  0  0  0
  2  3  2  0  0  0  0
  3  4  1  0  0  0  0
  3 26  1  0  0  0  0
  4 27  1  0  0  0  0
  5  6  1  0  0  0  0
  5  4  2  0  0  0  0
  6 28  1  1  0  0  0
  7  6  1  0  0  0  0
  8  6  1  0  0  0  0
  8  9  2  0  0  0  0
  9 10  1  0  0  0  0
  9 30  1  0  0  0  0
 10 31  1  0  0  0  0
 11 10  2  0  0  0  0
 12 11  1  0  0  0  0
 12 13  1  0  0  0  0
 13 33  1  0  0  0  0
 14 15  2  0  0  0  0
 14 11  1  0  0  0  0
 15  8  1  0  0  0  0
 16 37  1  6  0  0  0
 16 18  1  0  0  0  0
 16  2  1  0  0  0  0
 17 16  1  0  0  0  0
 18 25  1  0  0  0  0
 19 18  2  0  0  0  0
 19 20  1  0  0  0  0
 20 21  2  0  0  0  0
 21 24  1  0  0  0  0
 21 22  1  0  0  0  0
 22 23  1  0  0  0  0
 23 41  1  0  0  0  0
 23 43  1  0  0  0  0
 24 44  1  0  0  0  0
 25 45  1  0  0  0  0
 25 24  2  0  0  0  0
 29  7  1  0  0  0  0
 32 13  1  0  0  0  0
 34 13  1  0  0  0  0
 35 14  1  0  0  0  0
 36 15  1  0  0  0  0
 38 17  1  0  0  0  0
 39 19  1  0  0  0  0
 40 20  1  0  0  0  0
 42 23  1  0  0  0  0
M  END
