omegacsd_DIAVER_07.xyz
 OpenBabel12161914463D

 35 36  0  0  0  0  0  0  0  0999 V2000
   -3.8341    0.4484    1.3467 N   0  0  0  0  0  0  0  0  0  0  0  0
   -4.1500   -0.8554    1.3880 C   0  0  0  0  0  0  0  0  0  0  0  0
   -3.7101   -1.8136    0.5659 N   0  0  0  0  0  0  0  0  0  0  0  0
   -2.8930   -1.4286   -0.4114 C   0  0  0  0  0  0  0  0  0  0  0  0
   -2.4704   -0.0927   -0.5654 C   0  0  0  0  0  0  0  0  0  0  0  0
   -2.9976    0.7844    0.3666 C   0  0  0  0  0  0  0  0  0  0  0  0
   -1.4206    0.3436   -1.5604 C   0  0  0  0  0  0  0  0  0  0  0  0
   -0.0141    0.3177   -0.9827 C   0  0  0  0  0  0  0  0  0  0  0  0
    0.6612    1.5031   -0.6853 C   0  0  0  0  0  0  0  0  0  0  0  0
    1.9287    1.5002   -0.1265 C   0  0  0  0  0  0  0  0  0  0  0  0
    2.5492    0.2717    0.1679 C   0  0  0  0  0  0  0  0  0  0  0  0
    1.8851   -0.9133   -0.1316 C   0  0  0  0  0  0  0  0  0  0  0  0
    0.6154   -0.8903   -0.7070 C   0  0  0  0  0  0  0  0  0  0  0  0
    3.7799    0.3468    0.7416 O   0  0  0  0  0  0  0  0  0  0  0  0
    4.4119   -0.8625    1.1036 C   0  0  0  0  0  0  0  0  0  0  0  0
    2.5229    2.6942    0.1874 O   0  0  0  0  0  0  0  0  0  0  0  0
    3.6544    3.0305   -0.6048 C   0  0  0  0  0  0  0  0  0  0  0  0
   -2.4286   -2.4316   -1.2403 N   0  0  0  0  0  0  0  0  0  0  0  0
   -5.0286   -1.2452    2.3550 N   0  0  0  0  0  0  0  0  0  0  0  0
   -2.7306    1.8426    0.3233 H   0  0  0  0  0  0  0  0  0  0  0  0
   -1.4565   -0.2731   -2.4690 H   0  0  0  0  0  0  0  0  0  0  0  0
   -1.6567    1.3626   -1.8872 H   0  0  0  0  0  0  0  0  0  0  0  0
    0.2009    2.4671   -0.8846 H   0  0  0  0  0  0  0  0  0  0  0  0
    2.3542   -1.8668    0.0840 H   0  0  0  0  0  0  0  0  0  0  0  0
    0.1227   -1.8311   -0.9377 H   0  0  0  0  0  0  0  0  0  0  0  0
    5.3599   -0.5812    1.5634 H   0  0  0  0  0  0  0  0  0  0  0  0
    4.6057   -1.4911    0.2244 H   0  0  0  0  0  0  0  0  0  0  0  0
    3.8098   -1.4277    1.8274 H   0  0  0  0  0  0  0  0  0  0  0  0
    3.3794    3.1030   -1.6656 H   0  0  0  0  0  0  0  0  0  0  0  0
    4.4599    2.2994   -0.4838 H   0  0  0  0  0  0  0  0  0  0  0  0
    3.9932    4.0072   -0.2513 H   0  0  0  0  0  0  0  0  0  0  0  0
   -2.3266   -2.1844   -2.2161 H   0  0  0  0  0  0  0  0  0  0  0  0
   -2.9397   -3.2960   -1.1059 H   0  0  0  0  0  0  0  0  0  0  0  0
   -5.1688   -0.6046    3.1204 H   0  0  0  0  0  0  0  0  0  0  0  0
   -5.0684   -2.2330    2.5527 H   0  0  0  0  0  0  0  0  0  0  0  0
  1  2  2  0  0  0  0
  2 19  1  0  0  0  0
  3  2  1  0  0  0  0
  4  3  2  0  0  0  0
  5  4  1  0  0  0  0
  5  6  2  0  0  0  0
  6  1  1  0  0  0  0
  7  8  1  0  0  0  0
  7  5  1  0  0  0  0
  8 13  2  0  0  0  0
  8  9  1  0  0  0  0
  9 10  2  0  0  0  0
 10 11  1  0  0  0  0
 10 16  1  0  0  0  0
 11 14  1  0  0  0  0
 12 24  1  0  0  0  0
 12 11  2  0  0  0  0
 13 12  1  0  0  0  0
 14 15  1  0  0  0  0
 15 26  1  0  0  0  0
 15 28  1  0  0  0  0
 17 30  1  0  0  0  0
 17 31  1  0  0  0  0
 17 16  1  0  0  0  0
 18 33  1  0  0  0  0
 18  4  1  0  0  0  0
 19 35  1  0  0  0  0
 19 34  1  0  0  0  0
 20  6  1  0  0  0  0
 21  7  1  0  0  0  0
 22  7  1  0  0  0  0
 23  9  1  0  0  0  0
 25 13  1  0  0  0  0
 27 15  1  0  0  0  0
 29 17  1  0  0  0  0
 32 18  1  0  0  0  0
M  END
