omegacsd_CEJTIU_00.xyz
 OpenBabel12161914463D

 41 42  0  0  0  0  0  0  0  0999 V2000
   -6.3102   -0.7475    1.2866 C   0  0  0  0  0  0  0  0  0  0  0  0
   -5.7124    0.1827    0.3573 N   0  0  0  0  0  0  0  0  0  0  0  0
   -6.5405    1.0512   -0.4470 C   0  0  0  0  0  0  0  0  0  0  0  0
   -4.3405    0.2516    0.2415 C   0  0  0  0  0  0  0  0  0  0  0  0
   -3.7246    1.1475   -0.6540 C   0  0  0  0  0  0  0  0  0  0  0  0
   -2.3460    1.1990   -0.7707 C   0  0  0  0  0  0  0  0  0  0  0  0
   -1.5207    0.3698   -0.0093 C   0  0  0  0  0  0  0  0  0  0  0  0
   -2.1116   -0.5190    0.8882 C   0  0  0  0  0  0  0  0  0  0  0  0
   -3.4931   -0.5707    1.0095 C   0  0  0  0  0  0  0  0  0  0  0  0
   -0.1349    0.4951   -0.1908 N   0  0  0  0  0  0  0  0  0  0  0  0
    0.8376   -0.2569    0.3925 C   0  0  0  0  0  0  0  0  0  0  0  0
    0.6812   -1.1951    1.1513 O   0  0  0  0  0  0  0  0  0  0  0  0
    2.1536    0.1291    0.0602 N   0  0  0  0  0  0  0  0  0  0  0  0
    2.5809    1.1280   -0.7774 C   0  0  0  0  0  0  0  0  0  0  0  0
    1.8277    1.8358   -1.4343 O   0  0  0  0  0  0  0  0  0  0  0  0
    4.0842    1.3665   -0.8161 C   0  0  0  0  0  0  0  0  0  0  0  0
    4.9377    0.1703   -0.4763 C   0  0  0  0  0  0  0  0  0  0  0  0
    5.5025    0.0351    0.7926 C   0  0  0  0  0  0  0  0  0  0  0  0
    6.2413   -1.0985    1.1243 C   0  0  0  0  0  0  0  0  0  0  0  0
    6.4282   -2.1069    0.1826 C   0  0  0  0  0  0  0  0  0  0  0  0
    5.8675   -1.9802   -1.0857 C   0  0  0  0  0  0  0  0  0  0  0  0
    5.1231   -0.8500   -1.4113 C   0  0  0  0  0  0  0  0  0  0  0  0
   -6.0103   -1.7819    1.0704 H   0  0  0  0  0  0  0  0  0  0  0  0
   -6.0272   -0.5244    2.3247 H   0  0  0  0  0  0  0  0  0  0  0  0
   -7.3996   -0.6889    1.2118 H   0  0  0  0  0  0  0  0  0  0  0  0
   -7.5944    0.8517   -0.2352 H   0  0  0  0  0  0  0  0  0  0  0  0
   -6.3727    0.8887   -1.5206 H   0  0  0  0  0  0  0  0  0  0  0  0
   -6.3455    2.1110   -0.2322 H   0  0  0  0  0  0  0  0  0  0  0  0
   -4.3210    1.8154   -1.2649 H   0  0  0  0  0  0  0  0  0  0  0  0
   -1.8968    1.8995   -1.4735 H   0  0  0  0  0  0  0  0  0  0  0  0
   -1.4853   -1.1684    1.4867 H   0  0  0  0  0  0  0  0  0  0  0  0
   -3.9131   -1.2699    1.7247 H   0  0  0  0  0  0  0  0  0  0  0  0
    0.1965    1.2209   -0.8238 H   0  0  0  0  0  0  0  0  0  0  0  0
    2.8424   -0.4403    0.5331 H   0  0  0  0  0  0  0  0  0  0  0  0
    4.3014    1.7507   -1.8171 H   0  0  0  0  0  0  0  0  0  0  0  0
    4.2959    2.1852   -0.1169 H   0  0  0  0  0  0  0  0  0  0  0  0
    5.3496    0.8212    1.5303 H   0  0  0  0  0  0  0  0  0  0  0  0
    6.6662   -1.1939    2.1204 H   0  0  0  0  0  0  0  0  0  0  0  0
    7.0046   -2.9924    0.4390 H   0  0  0  0  0  0  0  0  0  0  0  0
    6.0109   -2.7645   -1.8253 H   0  0  0  0  0  0  0  0  0  0  0  0
    4.6673   -0.7563   -2.3951 H   0  0  0  0  0  0  0  0  0  0  0  0
  1 24  1  0  0  0  0
  2  1  1  0  0  0  0
  3 26  1  0  0  0  0
  3 28  1  0  0  0  0
  3  2  1  0  0  0  0
  4  2  1  0  0  0  0
  4  9  2  0  0  0  0
  5  4  1  0  0  0  0
  6  5  2  0  0  0  0
  6  7  1  0  0  0  0
  7  8  2  0  0  0  0
  8  9  1  0  0  0  0
  8 31  1  0  0  0  0
  9 32  1  0  0  0  0
 10  7  1  0  0  0  0
 10 11  1  0  0  0  0
 11 12  2  0  0  0  0
 13 11  1  0  0  0  0
 13 34  1  0  0  0  0
 14 13  1  0  0  0  0
 15 14  2  0  0  0  0
 16 14  1  0  0  0  0
 16 17  1  0  0  0  0
 16 36  1  0  0  0  0
 17 18  2  0  0  0  0
 18 19  1  0  0  0  0
 18 37  1  0  0  0  0
 19 38  1  0  0  0  0
 20 39  1  0  0  0  0
 20 19  2  0  0  0  0
 21 20  1  0  0  0  0
 22 21  2  0  0  0  0
 22 17  1  0  0  0  0
 23  1  1  0  0  0  0
 25  1  1  0  0  0  0
 27  3  1  0  0  0  0
 29  5  1  0  0  0  0
 30  6  1  0  0  0  0
 33 10  1  0  0  0  0
 35 16  1  0  0  0  0
 40 21  1  0  0  0  0
 41 22  1  0  0  0  0
M  END
