omegacsd_SEYMIS_02.xyz
 OpenBabel12161914463D

 45 47  0  0  0  0  0  0  0  0999 V2000
   -4.3576   -1.6195    1.3809 O   0  0  0  0  0  0  0  0  0  0  0  0
   -4.9428   -1.1684    0.2303 N   0  0  0  0  0  0  0  0  0  0  0  0
   -4.0900   -0.3556   -0.3421 C   0  0  0  0  0  0  0  0  0  0  0  0
   -2.8765   -0.2804    0.4426 C   0  0  0  0  0  0  0  0  0  0  0  0
   -1.6036    0.4505    0.2345 C   0  0  0  0  0  0  0  0  0  0  0  0
   -1.5157    1.5531   -0.2851 O   0  0  0  0  0  0  0  0  0  0  0  0
   -0.4937   -0.2100    0.6957 N   0  0  0  0  0  0  0  0  0  0  0  0
    0.8365    0.2360    0.5803 C   0  0  0  0  0  0  0  0  0  0  0  0
    1.3045    1.4283    0.0731 C   0  0  0  0  0  0  0  0  0  0  0  0
    2.6668    1.4403    0.1669 N   0  0  0  0  0  0  0  0  0  0  0  0
    3.5055    2.5433   -0.2561 C   0  0  0  0  0  0  0  0  0  0  0  0
    3.0811    0.2552    0.7343 C   0  0  0  0  0  0  0  0  0  0  0  0
    1.9582   -0.5091    1.0063 C   0  0  0  0  0  0  0  0  0  0  0  0
    4.4996   -0.0461    0.9563 C   0  0  0  0  0  0  0  0  0  0  0  0
    5.4297    0.6650    0.6302 O   0  0  0  0  0  0  0  0  0  0  0  0
    4.6566   -1.2279    1.5800 O   0  0  0  0  0  0  0  0  0  0  0  0
    6.0168   -1.6124    1.8626 C   0  0  0  0  0  0  0  0  0  0  0  0
    6.7285   -2.1362    0.6289 C   0  0  0  0  0  0  0  0  0  0  0  0
   -3.1365   -1.0998    1.5129 C   0  0  0  0  0  0  0  0  0  0  0  0
   -2.3990   -1.5088    2.7458 C   0  0  0  0  0  0  0  0  0  0  0  0
   -4.4987    0.2625   -1.6249 C   0  0  0  0  0  0  0  0  0  0  0  0
   -3.8639    1.3844   -2.1591 C   0  0  0  0  0  0  0  0  0  0  0  0
   -4.2972    1.9209   -3.3667 C   0  0  0  0  0  0  0  0  0  0  0  0
   -5.3696    1.3552   -4.0478 C   0  0  0  0  0  0  0  0  0  0  0  0
   -6.0136    0.2450   -3.5134 C   0  0  0  0  0  0  0  0  0  0  0  0
   -5.5828   -0.2944   -2.3089 C   0  0  0  0  0  0  0  0  0  0  0  0
   -0.6051   -1.1502    1.0374 H   0  0  0  0  0  0  0  0  0  0  0  0
    0.7576    2.2596   -0.3441 H   0  0  0  0  0  0  0  0  0  0  0  0
    4.1979    2.2198   -1.0336 H   0  0  0  0  0  0  0  0  0  0  0  0
    4.0877    2.9229    0.5843 H   0  0  0  0  0  0  0  0  0  0  0  0
    2.8555    3.3327   -0.6399 H   0  0  0  0  0  0  0  0  0  0  0  0
    1.9743   -1.4869    1.4701 H   0  0  0  0  0  0  0  0  0  0  0  0
    6.5480   -0.7583    2.2925 H   0  0  0  0  0  0  0  0  0  0  0  0
    5.9177   -2.3881    2.6239 H   0  0  0  0  0  0  0  0  0  0  0  0
    7.7182   -2.5097    0.9115 H   0  0  0  0  0  0  0  0  0  0  0  0
    6.1621   -2.9539    0.1734 H   0  0  0  0  0  0  0  0  0  0  0  0
    6.8580   -1.3412   -0.1089 H   0  0  0  0  0  0  0  0  0  0  0  0
   -1.7152   -2.3426    2.5436 H   0  0  0  0  0  0  0  0  0  0  0  0
   -1.8076   -0.6829    3.1458 H   0  0  0  0  0  0  0  0  0  0  0  0
   -3.1130   -1.8410    3.5021 H   0  0  0  0  0  0  0  0  0  0  0  0
   -3.0356    1.8363   -1.6293 H   0  0  0  0  0  0  0  0  0  0  0  0
   -3.7901    2.7897   -3.7775 H   0  0  0  0  0  0  0  0  0  0  0  0
   -5.7037    1.7787   -4.9914 H   0  0  0  0  0  0  0  0  0  0  0  0
   -6.8577   -0.2018   -4.0333 H   0  0  0  0  0  0  0  0  0  0  0  0
   -6.0914   -1.1544   -1.8847 H   0  0  0  0  0  0  0  0  0  0  0  0
  1 19  1  0  0  0  0
  2  1  1  0  0  0  0
  3  2  2  0  0  0  0
  3  4  1  0  0  0  0
  4 19  2  0  0  0  0
  5  4  1  0  0  0  0
  5  7  1  0  0  0  0
  6  5  2  0  0  0  0
  7 27  1  0  0  0  0
  8  7  1  0  0  0  0
  8 13  1  0  0  0  0
  9 10  1  0  0  0  0
  9  8  2  0  0  0  0
 10 12  1  0  0  0  0
 11 10  1  0  0  0  0
 11 30  1  0  0  0  0
 12 14  1  0  0  0  0
 12 13  2  0  0  0  0
 13 32  1  0  0  0  0
 14 16  1  0  0  0  0
 15 14  2  0  0  0  0
 16 17  1  0  0  0  0
 17 33  1  0  0  0  0
 17 34  1  0  0  0  0
 18 35  1  0  0  0  0
 18 17  1  0  0  0  0
 19 20  1  0  0  0  0
 20 39  1  0  0  0  0
 20 40  1  0  0  0  0
 21  3  1  0  0  0  0
 22 41  1  0  0  0  0
 22 21  1  0  0  0  0
 23 22  2  0  0  0  0
 24 25  2  0  0  0  0
 24 23  1  0  0  0  0
 25 26  1  0  0  0  0
 26 45  1  0  0  0  0
 26 21  2  0  0  0  0
 28  9  1  0  0  0  0
 29 11  1  0  0  0  0
 31 11  1  0  0  0  0
 36 18  1  0  0  0  0
 37 18  1  0  0  0  0
 38 20  1  0  0  0  0
 42 23  1  0  0  0  0
 43 24  1  0  0  0  0
 44 25  1  0  0  0  0
M  END
