omegacsd_DIAVER_08.xyz
 OpenBabel12161914463D

 35 36  0  0  0  0  0  0  0  0999 V2000
   -3.5847   -1.9109    0.0716 N   0  0  0  0  0  0  0  0  0  0  0  0
   -3.9385   -0.9851   -0.8331 C   0  0  0  0  0  0  0  0  0  0  0  0
   -3.4896    0.2719   -0.9130 N   0  0  0  0  0  0  0  0  0  0  0  0
   -2.6186    0.6510    0.0184 C   0  0  0  0  0  0  0  0  0  0  0  0
   -2.1426   -0.2261    1.0136 C   0  0  0  0  0  0  0  0  0  0  0  0
   -2.6939   -1.4948    0.9700 C   0  0  0  0  0  0  0  0  0  0  0  0
   -1.0343    0.1360    1.9731 C   0  0  0  0  0  0  0  0  0  0  0  0
    0.3576   -0.1033    1.4069 C   0  0  0  0  0  0  0  0  0  0  0  0
    0.8936    0.7830    0.4668 C   0  0  0  0  0  0  0  0  0  0  0  0
    2.1654    0.5762   -0.0606 C   0  0  0  0  0  0  0  0  0  0  0  0
    2.9098   -0.5539    0.3253 C   0  0  0  0  0  0  0  0  0  0  0  0
    2.3683   -1.4350    1.2461 C   0  0  0  0  0  0  0  0  0  0  0  0
    1.1035   -1.2136    1.7831 C   0  0  0  0  0  0  0  0  0  0  0  0
    4.1823   -0.7637   -0.1363 O   0  0  0  0  0  0  0  0  0  0  0  0
    4.2748   -1.1551   -1.4984 C   0  0  0  0  0  0  0  0  0  0  0  0
    2.7673    1.4076   -0.9530 O   0  0  0  0  0  0  0  0  0  0  0  0
    2.1183    2.6245   -1.2486 C   0  0  0  0  0  0  0  0  0  0  0  0
   -2.1625    1.9543   -0.0763 N   0  0  0  0  0  0  0  0  0  0  0  0
   -4.8738   -1.3512   -1.7543 N   0  0  0  0  0  0  0  0  0  0  0  0
   -2.4045   -2.2389    1.7161 H   0  0  0  0  0  0  0  0  0  0  0  0
   -1.1269    1.1822    2.2946 H   0  0  0  0  0  0  0  0  0  0  0  0
   -1.1551   -0.4589    2.8850 H   0  0  0  0  0  0  0  0  0  0  0  0
    0.3063    1.6343    0.1414 H   0  0  0  0  0  0  0  0  0  0  0  0
    2.9597   -2.2954    1.5442 H   0  0  0  0  0  0  0  0  0  0  0  0
    0.7063   -1.9185    2.5102 H   0  0  0  0  0  0  0  0  0  0  0  0
    3.7729   -2.1180   -1.6620 H   0  0  0  0  0  0  0  0  0  0  0  0
    5.3406   -1.2647   -1.7116 H   0  0  0  0  0  0  0  0  0  0  0  0
    3.8450   -0.3970   -2.1609 H   0  0  0  0  0  0  0  0  0  0  0  0
    1.9338    3.2078   -0.3369 H   0  0  0  0  0  0  0  0  0  0  0  0
    2.7905    3.1795   -1.9046 H   0  0  0  0  0  0  0  0  0  0  0  0
    1.1645    2.4516   -1.7637 H   0  0  0  0  0  0  0  0  0  0  0  0
   -2.7235    2.4953   -0.7245 H   0  0  0  0  0  0  0  0  0  0  0  0
   -2.0160    2.4295    0.8054 H   0  0  0  0  0  0  0  0  0  0  0  0
   -5.0350   -2.3396   -1.8654 H   0  0  0  0  0  0  0  0  0  0  0  0
   -4.9607   -0.7609   -2.5671 H   0  0  0  0  0  0  0  0  0  0  0  0
  1  6  1  0  0  0  0
  2  1  2  0  0  0  0
  3  2  1  0  0  0  0
  3  4  2  0  0  0  0
  4  5  1  0  0  0  0
  5  7  1  0  0  0  0
  6  5  2  0  0  0  0
  6 20  1  0  0  0  0
  7 21  1  0  0  0  0
  7 22  1  0  0  0  0
  8 13  1  0  0  0  0
  8  7  1  0  0  0  0
  9  8  2  0  0  0  0
 10 11  2  0  0  0  0
 10  9  1  0  0  0  0
 11 12  1  0  0  0  0
 12 24  1  0  0  0  0
 12 13  2  0  0  0  0
 13 25  1  0  0  0  0
 14 11  1  0  0  0  0
 15 14  1  0  0  0  0
 16 10  1  0  0  0  0
 17 16  1  0  0  0  0
 17 29  1  0  0  0  0
 18  4  1  0  0  0  0
 18 33  1  0  0  0  0
 19  2  1  0  0  0  0
 23  9  1  0  0  0  0
 26 15  1  0  0  0  0
 27 15  1  0  0  0  0
 28 15  1  0  0  0  0
 30 17  1  0  0  0  0
 31 17  1  0  0  0  0
 32 18  1  0  0  0  0
 34 19  1  0  0  0  0
 35 19  1  0  0  0  0
M  END
