omegacsd_CUHNEY10_18.xyz
 OpenBabel12161914463D

 44 47  0  0  1  0  0  0  0  0999 V2000
   -4.2613   -5.8751   -1.6313 Cl  0  0  0  0  0  0  0  0  0  0  0  0
   -3.7299   -4.2519   -1.3441 C   0  0  0  0  0  0  0  0  0  0  0  0
   -4.4063   -3.1834   -1.9162 C   0  0  0  0  0  0  0  0  0  0  0  0
   -4.0509   -1.9178   -1.7334 N   0  0  0  0  0  0  0  0  0  0  0  0
   -2.9957   -1.6597   -0.9679 C   0  0  0  0  0  0  0  0  0  0  0  0
   -2.6488   -0.3100   -0.7754 N   0  0  0  0  0  0  0  0  0  0  0  0
   -3.1069    0.7800   -1.5636 C   0  0  0  0  0  0  0  0  0  0  0  0
   -3.6086    0.7220   -2.6546 O   0  0  0  0  0  0  0  0  0  0  0  0
   -2.7928    1.9854   -0.7604 C   0  0  0  0  0  0  0  0  0  0  0  0
   -3.0974    3.2526   -1.0421 N   0  0  0  0  0  0  0  0  0  0  0  0
   -2.6847    4.1112   -0.1189 C   0  0  0  0  0  0  0  0  0  0  0  0
   -1.9955    3.7214    1.0397 C   0  0  0  0  0  0  0  0  0  0  0  0
   -1.6882    2.4474    1.2976 N   0  0  0  0  0  0  0  0  0  0  0  0
   -2.1020    1.6060    0.3701 C   0  0  0  0  0  0  0  0  0  0  0  0
   -1.8533    0.1285    0.3648 C   0  0  2  0  0  0  0  0  0  0  0  0
   -0.4788   -0.1543    0.0704 O   0  0  0  0  0  0  0  0  0  0  0  0
    0.3796   -0.1391    1.1324 C   0  0  0  0  0  0  0  0  0  0  0  0
    0.0277   -0.2559    2.2870 O   0  0  0  0  0  0  0  0  0  0  0  0
    1.6656   -0.0074    0.7224 N   0  0  0  0  0  0  0  0  0  0  0  0
    2.7114   -0.0116    1.7384 C   0  0  0  0  0  0  0  0  0  0  0  0
    3.9979   -0.5527    1.1182 C   0  0  0  0  0  0  0  0  0  0  0  0
    4.4457    0.2200   -0.0401 N   0  0  0  0  0  0  0  0  0  0  0  0
    3.3681    0.9107   -0.7415 C   0  0  0  0  0  0  0  0  0  0  0  0
    2.0542    0.1459   -0.6769 C   0  0  0  0  0  0  0  0  0  0  0  0
    5.5323    1.1335    0.2529 C   0  0  0  0  0  0  0  0  0  0  0  0
   -2.2484   -2.6732   -0.3469 C   0  0  0  0  0  0  0  0  0  0  0  0
   -2.6263   -3.9909   -0.5433 C   0  0  0  0  0  0  0  0  0  0  0  0
   -5.2711   -3.3647   -2.5500 H   0  0  0  0  0  0  0  0  0  0  0  0
   -2.9053    5.1617   -0.2975 H   0  0  0  0  0  0  0  0  0  0  0  0
   -1.6829    4.4623    1.7695 H   0  0  0  0  0  0  0  0  0  0  0  0
   -2.1358   -0.3667    1.3009 H   0  0  0  0  0  0  0  0  0  0  0  0
    2.8644    1.0007    2.1435 H   0  0  0  0  0  0  0  0  0  0  0  0
    2.3749   -0.6433    2.5629 H   0  0  0  0  0  0  0  0  0  0  0  0
    3.8224   -1.5977    0.8234 H   0  0  0  0  0  0  0  0  0  0  0  0
    4.8050   -0.5707    1.8600 H   0  0  0  0  0  0  0  0  0  0  0  0
    3.6664    1.0483   -1.7889 H   0  0  0  0  0  0  0  0  0  0  0  0
    3.1882    1.9205   -0.3247 H   0  0  0  0  0  0  0  0  0  0  0  0
    2.1467   -0.8341   -1.1659 H   0  0  0  0  0  0  0  0  0  0  0  0
    1.2814    0.7101   -1.2031 H   0  0  0  0  0  0  0  0  0  0  0  0
    5.2593    1.9337    0.9678 H   0  0  0  0  0  0  0  0  0  0  0  0
    6.3859    0.5838    0.6626 H   0  0  0  0  0  0  0  0  0  0  0  0
    5.8583    1.6122   -0.6763 H   0  0  0  0  0  0  0  0  0  0  0  0
   -1.3884   -2.4347    0.2645 H   0  0  0  0  0  0  0  0  0  0  0  0
   -2.0760   -4.8030   -0.0789 H   0  0  0  0  0  0  0  0  0  0  0  0
  1  2  1  0  0  0  0
  2 27  2  0  0  0  0
  3  4  2  0  0  0  0
  3  2  1  0  0  0  0
  4  5  1  0  0  0  0
  5  6  1  0  0  0  0
  5 26  2  0  0  0  0
  6 15  1  0  0  0  0
  7  6  1  0  0  0  0
  7  9  1  0  0  0  0
  8  7  2  0  0  0  0
  9 14  1  0  0  0  0
 10  9  2  0  0  0  0
 10 11  1  0  0  0  0
 11 12  2  0  0  0  0
 12 13  1  0  0  0  0
 12 30  1  0  0  0  0
 14 13  2  0  0  0  0
 15 14  1  0  0  0  0
 15 31  1  1  0  0  0
 16 15  1  0  0  0  0
 16 17  1  0  0  0  0
 17 18  2  0  0  0  0
 19 17  1  0  0  0  0
 19 20  1  0  0  0  0
 20 32  1  0  0  0  0
 20 33  1  0  0  0  0
 21 20  1  0  0  0  0
 21 35  1  0  0  0  0
 22 25  1  0  0  0  0
 22 21  1  0  0  0  0
 23 24  1  0  0  0  0
 23 37  1  0  0  0  0
 23 22  1  0  0  0  0
 24 19  1  0  0  0  0
 25 41  1  0  0  0  0
 25 40  1  0  0  0  0
 26 43  1  0  0  0  0
 27 26  1  0  0  0  0
 27 44  1  0  0  0  0
 28  3  1  0  0  0  0
 29 11  1  0  0  0  0
 34 21  1  0  0  0  0
 36 23  1  0  0  0  0
 38 24  1  0  0  0  0
 39 24  1  0  0  0  0
 42 25  1  0  0  0  0
M  END
