omegacsd_CEJTIU_07.xyz
 OpenBabel12161914463D

 41 42  0  0  0  0  0  0  0  0999 V2000
   -6.3438   -1.1768   -0.1246 C   0  0  0  0  0  0  0  0  0  0  0  0
   -5.9098    0.1619    0.2024 N   0  0  0  0  0  0  0  0  0  0  0  0
   -6.8695    1.1617    0.6119 C   0  0  0  0  0  0  0  0  0  0  0  0
   -4.5626    0.4554    0.2331 C   0  0  0  0  0  0  0  0  0  0  0  0
   -3.5898   -0.5044   -0.1065 C   0  0  0  0  0  0  0  0  0  0  0  0
   -2.2318   -0.2226   -0.0766 C   0  0  0  0  0  0  0  0  0  0  0  0
   -1.7860    1.0461    0.2992 C   0  0  0  0  0  0  0  0  0  0  0  0
   -2.7396    2.0112    0.6350 C   0  0  0  0  0  0  0  0  0  0  0  0
   -4.0951    1.7303    0.6056 C   0  0  0  0  0  0  0  0  0  0  0  0
   -0.4295    1.4185    0.3672 N   0  0  0  0  0  0  0  0  0  0  0  0
    0.6696    0.6339    0.0924 C   0  0  0  0  0  0  0  0  0  0  0  0
    0.6034   -0.5193   -0.2857 O   0  0  0  0  0  0  0  0  0  0  0  0
    1.8729    1.3160    0.2963 N   0  0  0  0  0  0  0  0  0  0  0  0
    3.1879    0.8975    0.0573 C   0  0  0  0  0  0  0  0  0  0  0  0
    4.0831    1.7030    0.1905 O   0  0  0  0  0  0  0  0  0  0  0  0
    3.4086   -0.5467   -0.3650 C   0  0  0  0  0  0  0  0  0  0  0  0
    4.8673   -0.9290   -0.4092 C   0  0  0  0  0  0  0  0  0  0  0  0
    5.3793   -1.8797    0.4719 C   0  0  0  0  0  0  0  0  0  0  0  0
    6.7171   -2.2627    0.4123 C   0  0  0  0  0  0  0  0  0  0  0  0
    7.5583   -1.6924   -0.5376 C   0  0  0  0  0  0  0  0  0  0  0  0
    7.0571   -0.7371   -1.4185 C   0  0  0  0  0  0  0  0  0  0  0  0
    5.7235   -0.3514   -1.3486 C   0  0  0  0  0  0  0  0  0  0  0  0
   -6.0301   -1.4636   -1.1374 H   0  0  0  0  0  0  0  0  0  0  0  0
   -7.4356   -1.2284   -0.0804 H   0  0  0  0  0  0  0  0  0  0  0  0
   -5.9376   -1.9192    0.5770 H   0  0  0  0  0  0  0  0  0  0  0  0
   -6.7174    1.4719    1.6556 H   0  0  0  0  0  0  0  0  0  0  0  0
   -6.8075    2.0588   -0.0185 H   0  0  0  0  0  0  0  0  0  0  0  0
   -7.8813    0.7559    0.5225 H   0  0  0  0  0  0  0  0  0  0  0  0
   -3.8916   -1.5045   -0.3987 H   0  0  0  0  0  0  0  0  0  0  0  0
   -1.5156   -0.9888   -0.3420 H   0  0  0  0  0  0  0  0  0  0  0  0
   -2.4173    3.0084    0.9305 H   0  0  0  0  0  0  0  0  0  0  0  0
   -4.7943    2.5111    0.8825 H   0  0  0  0  0  0  0  0  0  0  0  0
   -0.2712    2.3668    0.6713 H   0  0  0  0  0  0  0  0  0  0  0  0
    1.8545    2.2898    0.5741 H   0  0  0  0  0  0  0  0  0  0  0  0
    2.8500   -1.2022    0.3084 H   0  0  0  0  0  0  0  0  0  0  0  0
    2.9473   -0.6775   -1.3517 H   0  0  0  0  0  0  0  0  0  0  0  0
    4.7220   -2.3282    1.2156 H   0  0  0  0  0  0  0  0  0  0  0  0
    7.0983   -3.0087    1.1054 H   0  0  0  0  0  0  0  0  0  0  0  0
    8.6026   -1.9893   -0.5923 H   0  0  0  0  0  0  0  0  0  0  0  0
    7.7108   -0.2852   -2.1601 H   0  0  0  0  0  0  0  0  0  0  0  0
    5.3437    0.4194   -2.0144 H   0  0  0  0  0  0  0  0  0  0  0  0
  1 24  1  0  0  0  0
  1  2  1  0  0  0  0
  1 25  1  0  0  0  0
  2  4  1  0  0  0  0
  2  3  1  0  0  0  0
  3 26  1  0  0  0  0
  4  9  2  0  0  0  0
  5  6  2  0  0  0  0
  5  4  1  0  0  0  0
  6  7  1  0  0  0  0
  7 10  1  0  0  0  0
  7  8  2  0  0  0  0
  8 31  1  0  0  0  0
  9  8  1  0  0  0  0
  9 32  1  0  0  0  0
 10 33  1  0  0  0  0
 11 13  1  0  0  0  0
 11 10  1  0  0  0  0
 12 11  2  0  0  0  0
 13 34  1  0  0  0  0
 14 15  2  0  0  0  0
 14 13  1  0  0  0  0
 16 14  1  0  0  0  0
 16 35  1  0  0  0  0
 17 16  1  0  0  0  0
 17 18  2  0  0  0  0
 18 37  1  0  0  0  0
 19 18  1  0  0  0  0
 19 38  1  0  0  0  0
 20 19  2  0  0  0  0
 21 22  2  0  0  0  0
 21 20  1  0  0  0  0
 22 17  1  0  0  0  0
 23  1  1  0  0  0  0
 27  3  1  0  0  0  0
 28  3  1  0  0  0  0
 29  5  1  0  0  0  0
 30  6  1  0  0  0  0
 36 16  1  0  0  0  0
 39 20  1  0  0  0  0
 40 21  1  0  0  0  0
 41 22  1  0  0  0  0
M  END
