omegapdb_1z1r_26.xyz
 OpenBabel12161914463D

 66 68  0  0  1  0  0  0  0  0999 V2000
    1.0441   -1.5205    1.6126 C   0  0  2  0  0  0  0  0  0  0  0  0
    0.3233   -2.8750    1.8386 C   0  0  0  0  0  0  0  0  0  0  0  0
   -1.0269   -3.0083    1.1825 C   0  0  0  0  0  0  0  0  0  0  0  0
   -1.1452   -3.2981   -0.1797 C   0  0  0  0  0  0  0  0  0  0  0  0
   -2.3736   -3.2381   -0.8250 C   0  0  0  0  0  0  0  0  0  0  0  0
   -3.5206   -2.9011   -0.1017 C   0  0  0  0  0  0  0  0  0  0  0  0
   -3.4365   -2.7356    1.2849 C   0  0  0  0  0  0  0  0  0  0  0  0
   -2.2011   -2.7785    1.9089 C   0  0  0  0  0  0  0  0  0  0  0  0
   -4.7533   -2.7530   -0.6638 O   0  0  0  0  0  0  0  0  0  0  0  0
   -4.8709   -2.1632   -1.9523 C   0  0  0  0  0  0  0  0  0  0  0  0
   -4.9837   -0.6396   -1.9418 C   0  0  0  0  0  0  0  0  0  0  0  0
   -3.8136    0.1111   -1.3050 C   0  0  0  0  0  0  0  0  0  0  0  0
   -4.0054    0.3216    0.1921 C   0  0  0  0  0  0  0  0  0  0  0  0
   -5.1095    0.2755    0.7113 O   0  0  0  0  0  0  0  0  0  0  0  0
   -2.9088    0.6572    0.9457 N   0  0  0  0  0  0  0  0  0  0  0  0
   -1.5095    0.3488    0.6739 C   0  0  2  0  0  0  0  0  0  0  0  0
   -0.8298    0.2375    2.0580 C   0  0  0  0  0  0  0  0  0  0  0  0
   -1.3577    0.7690    3.0222 O   0  0  0  0  0  0  0  0  0  0  0  0
    0.3981   -0.3599    2.2298 N   0  0  0  0  0  0  0  0  0  0  0  0
   -0.8389    1.4527   -0.1834 C   0  0  0  0  0  0  0  0  0  0  0  0
   -0.4395    2.6611    0.6498 C   0  0  0  0  0  0  0  0  0  0  0  0
    0.7091    2.8664    1.0162 O   0  0  0  0  0  0  0  0  0  0  0  0
   -1.4705    3.4868    0.9704 N   0  0  0  0  0  0  0  0  0  0  0  0
    1.4470   -1.2711    0.1578 C   0  0  2  0  0  0  0  0  0  0  0  0
    2.0283   -2.4632   -0.3355 O   0  0  0  0  0  0  0  0  0  0  0  0
    2.4487   -0.1114    0.0484 C   0  0  0  0  0  0  0  0  0  0  0  0
    3.0326   -0.0887   -1.3000 N   0  0  0  0  0  0  0  0  0  0  0  0
    3.2434    1.3546   -2.0988 S   0  0  0  0  0  0  0  0  0  0  0  0
    3.8632    1.0189   -3.3670 O   0  0  0  0  0  0  0  0  0  0  0  0
    1.9736    2.0568   -2.0269 O   0  0  0  0  0  0  0  0  0  0  0  0
    4.4261    2.2572   -1.1332 C   0  0  0  0  0  0  0  0  0  0  0  0
    5.7597    2.2516   -1.5288 C   0  0  0  0  0  0  0  0  0  0  0  0
    6.6986    2.9125   -0.7448 C   0  0  0  0  0  0  0  0  0  0  0  0
    6.3010    3.5736    0.4145 C   0  0  0  0  0  0  0  0  0  0  0  0
    4.9599    3.5808    0.7914 C   0  0  0  0  0  0  0  0  0  0  0  0
    4.0087    2.9235    0.0172 C   0  0  0  0  0  0  0  0  0  0  0  0
    1.9902   -1.6210    2.1601 H   0  0  0  0  0  0  0  0  0  0  0  0
    0.9991   -3.6530    1.4694 H   0  0  0  0  0  0  0  0  0  0  0  0
    0.2237   -3.0157    2.9214 H   0  0  0  0  0  0  0  0  0  0  0  0
   -0.2507   -3.5345   -0.7539 H   0  0  0  0  0  0  0  0  0  0  0  0
   -2.4279   -3.4655   -1.8853 H   0  0  0  0  0  0  0  0  0  0  0  0
   -4.3471   -2.5070    1.8333 H   0  0  0  0  0  0  0  0  0  0  0  0
   -2.1292   -2.5874    2.9795 H   0  0  0  0  0  0  0  0  0  0  0  0
   -5.7872   -2.5887   -2.3725 H   0  0  0  0  0  0  0  0  0  0  0  0
   -4.0354   -2.4677   -2.5938 H   0  0  0  0  0  0  0  0  0  0  0  0
   -5.8987   -0.3413   -1.4202 H   0  0  0  0  0  0  0  0  0  0  0  0
   -5.0817   -0.3306   -2.9896 H   0  0  0  0  0  0  0  0  0  0  0  0
   -2.8578   -0.3805   -1.5164 H   0  0  0  0  0  0  0  0  0  0  0  0
   -3.7446    1.1127   -1.7538 H   0  0  0  0  0  0  0  0  0  0  0  0
   -3.1201    0.7656    1.9324 H   0  0  0  0  0  0  0  0  0  0  0  0
   -1.4310   -0.6050    0.1385 H   0  0  0  0  0  0  0  0  0  0  0  0
    0.6871   -0.1997    3.1865 H   0  0  0  0  0  0  0  0  0  0  0  0
    0.0523    1.0845   -0.6899 H   0  0  0  0  0  0  0  0  0  0  0  0
   -1.5473    1.7559   -0.9615 H   0  0  0  0  0  0  0  0  0  0  0  0
   -2.4042    3.1034    0.9380 H   0  0  0  0  0  0  0  0  0  0  0  0
   -1.2839    4.1954    1.6659 H   0  0  0  0  0  0  0  0  0  0  0  0
    0.5595   -1.0335   -0.4460 H   0  0  0  0  0  0  0  0  0  0  0  0
    2.2764   -2.2737   -1.2511 H   0  0  0  0  0  0  0  0  0  0  0  0
    3.2532   -0.2530    0.7797 H   0  0  0  0  0  0  0  0  0  0  0  0
    1.9470    0.8348    0.2728 H   0  0  0  0  0  0  0  0  0  0  0  0
    3.8567   -0.6711   -1.4138 H   0  0  0  0  0  0  0  0  0  0  0  0
    6.0413    1.7362   -2.4433 H   0  0  0  0  0  0  0  0  0  0  0  0
    7.7433    2.9123   -1.0424 H   0  0  0  0  0  0  0  0  0  0  0  0
    7.0398    4.0863    1.0259 H   0  0  0  0  0  0  0  0  0  0  0  0
    4.6492    4.1016    1.6924 H   0  0  0  0  0  0  0  0  0  0  0  0
    2.9572    2.9284    0.3048 H   0  0  0  0  0  0  0  0  0  0  0  0
  1  2  1  0  0  0  0
  1 37  1  1  0  0  0
  1 19  1  0  0  0  0
  2 39  1  0  0  0  0
  3  2  1  0  0  0  0
  3  8  2  0  0  0  0
  4  3  1  0  0  0  0
  5  4  2  0  0  0  0
  5  6  1  0  0  0  0
  6  7  2  0  0  0  0
  7 42  1  0  0  0  0
  7  8  1  0  0  0  0
  8 43  1  0  0  0  0
  9  6  1  0  0  0  0
 10 11  1  0  0  0  0
 10  9  1  0  0  0  0
 11 46  1  0  0  0  0
 11 12  1  0  0  0  0
 12 13  1  0  0  0  0
 13 14  2  0  0  0  0
 13 15  1  0  0  0  0
 15 50  1  0  0  0  0
 16 51  1  6  0  0  0
 16 15  1  0  0  0  0
 16 17  1  0  0  0  0
 17 19  1  0  0  0  0
 17 18  2  0  0  0  0
 19 52  1  0  0  0  0
 20 21  1  0  0  0  0
 20 16  1  0  0  0  0
 21 23  1  0  0  0  0
 21 22  2  0  0  0  0
 23 56  1  0  0  0  0
 24 57  1  6  0  0  0
 24  1  1  0  0  0  0
 25 24  1  0  0  0  0
 26 24  1  0  0  0  0
 26 60  1  0  0  0  0
 26 59  1  0  0  0  0
 27 26  1  0  0  0  0
 28 30  2  0  0  0  0
 28 27  1  0  0  0  0
 28 31  1  0  0  0  0
 29 28  2  0  0  0  0
 31 36  1  0  0  0  0
 32 31  2  0  0  0  0
 32 33  1  0  0  0  0
 33 34  2  0  0  0  0
 34 35  1  0  0  0  0
 34 64  1  0  0  0  0
 35 65  1  0  0  0  0
 36 66  1  0  0  0  0
 36 35  2  0  0  0  0
 38  2  1  0  0  0  0
 40  4  1  0  0  0  0
 41  5  1  0  0  0  0
 44 10  1  0  0  0  0
 45 10  1  0  0  0  0
 47 11  1  0  0  0  0
 48 12  1  0  0  0  0
 49 12  1  0  0  0  0
 53 20  1  0  0  0  0
 54 20  1  0  0  0  0
 55 23  1  0  0  0  0
 58 25  1  0  0  0  0
 61 27  1  0  0  0  0
 62 32  1  0  0  0  0
 63 33  1  0  0  0  0
M  END
