omegapdb_1z1r_31.xyz
 OpenBabel12161914463D

 66 68  0  0  1  0  0  0  0  0999 V2000
    0.5960    0.6683   -0.5430 C   0  0  2  0  0  0  0  0  0  0  0  0
    0.4340    0.0198   -1.9325 C   0  0  0  0  0  0  0  0  0  0  0  0
   -0.4932   -1.1708   -1.8347 C   0  0  0  0  0  0  0  0  0  0  0  0
   -0.1349   -2.2765   -1.0577 C   0  0  0  0  0  0  0  0  0  0  0  0
   -1.0413   -3.2923   -0.7983 C   0  0  0  0  0  0  0  0  0  0  0  0
   -2.3346   -3.2129   -1.3063 C   0  0  0  0  0  0  0  0  0  0  0  0
   -2.6888   -2.1560   -2.1429 C   0  0  0  0  0  0  0  0  0  0  0  0
   -1.7694   -1.1443   -2.3984 C   0  0  0  0  0  0  0  0  0  0  0  0
   -3.1998   -4.2310   -1.0013 O   0  0  0  0  0  0  0  0  0  0  0  0
   -4.4289   -3.8428   -0.4004 C   0  0  0  0  0  0  0  0  0  0  0  0
   -4.2841   -3.1905    0.9895 C   0  0  0  0  0  0  0  0  0  0  0  0
   -4.6202   -1.6968    1.0534 C   0  0  0  0  0  0  0  0  0  0  0  0
   -3.4495   -0.7601    0.8140 C   0  0  0  0  0  0  0  0  0  0  0  0
   -2.3244   -1.0004    1.2443 O   0  0  0  0  0  0  0  0  0  0  0  0
   -3.7648    0.3948    0.1566 N   0  0  0  0  0  0  0  0  0  0  0  0
   -3.0177    1.6496    0.2828 C   0  0  2  0  0  0  0  0  0  0  0  0
   -1.7185    1.5994   -0.5391 C   0  0  0  0  0  0  0  0  0  0  0  0
   -1.6764    2.1035   -1.6502 O   0  0  0  0  0  0  0  0  0  0  0  0
   -0.6873    0.9630    0.0851 N   0  0  0  0  0  0  0  0  0  0  0  0
   -2.8143    2.0680    1.7560 C   0  0  0  0  0  0  0  0  0  0  0  0
   -4.1553    2.0702    2.4700 C   0  0  0  0  0  0  0  0  0  0  0  0
   -4.6640    1.0438    2.8892 O   0  0  0  0  0  0  0  0  0  0  0  0
   -4.7912    3.2741    2.5411 N   0  0  0  0  0  0  0  0  0  0  0  0
    1.5529    1.8666   -0.5273 C   0  0  2  0  0  0  0  0  0  0  0  0
    1.2615    2.7443   -1.5885 O   0  0  0  0  0  0  0  0  0  0  0  0
    3.0097    1.4111   -0.6186 C   0  0  0  0  0  0  0  0  0  0  0  0
    3.8937    2.5721   -0.4675 N   0  0  0  0  0  0  0  0  0  0  0  0
    5.5013    2.3945   -0.8794 S   0  0  0  0  0  0  0  0  0  0  0  0
    5.5346    2.0687   -2.2930 O   0  0  0  0  0  0  0  0  0  0  0  0
    6.1704    3.5635   -0.3386 O   0  0  0  0  0  0  0  0  0  0  0  0
    6.0771    0.9692    0.0133 C   0  0  0  0  0  0  0  0  0  0  0  0
    5.9517   -0.2952   -0.5590 C   0  0  0  0  0  0  0  0  0  0  0  0
    6.3514   -1.4107    0.1674 C   0  0  0  0  0  0  0  0  0  0  0  0
    6.8771   -1.2589    1.4487 C   0  0  0  0  0  0  0  0  0  0  0  0
    7.0158    0.0126    2.0014 C   0  0  0  0  0  0  0  0  0  0  0  0
    6.6213    1.1366    1.2830 C   0  0  0  0  0  0  0  0  0  0  0  0
    1.0396   -0.0748    0.1326 H   0  0  0  0  0  0  0  0  0  0  0  0
    0.0365    0.7646   -2.6229 H   0  0  0  0  0  0  0  0  0  0  0  0
    1.4222   -0.3002   -2.2923 H   0  0  0  0  0  0  0  0  0  0  0  0
    0.8637   -2.3369   -0.6275 H   0  0  0  0  0  0  0  0  0  0  0  0
   -0.7798   -4.1397   -0.1695 H   0  0  0  0  0  0  0  0  0  0  0  0
   -3.6821   -2.1245   -2.5856 H   0  0  0  0  0  0  0  0  0  0  0  0
   -2.0652   -0.2846   -2.9985 H   0  0  0  0  0  0  0  0  0  0  0  0
   -4.9860   -4.7804   -0.3315 H   0  0  0  0  0  0  0  0  0  0  0  0
   -4.9884   -3.1878   -1.0853 H   0  0  0  0  0  0  0  0  0  0  0  0
   -4.9655   -3.7128    1.6721 H   0  0  0  0  0  0  0  0  0  0  0  0
   -3.2674   -3.3538    1.3638 H   0  0  0  0  0  0  0  0  0  0  0  0
   -5.4440   -1.4539    0.3677 H   0  0  0  0  0  0  0  0  0  0  0  0
   -4.9752   -1.4320    2.0588 H   0  0  0  0  0  0  0  0  0  0  0  0
   -4.7411    0.5159   -0.0691 H   0  0  0  0  0  0  0  0  0  0  0  0
   -3.6248    2.4019   -0.2268 H   0  0  0  0  0  0  0  0  0  0  0  0
   -0.9970    0.2584    0.7539 H   0  0  0  0  0  0  0  0  0  0  0  0
   -2.3234    3.0462    1.8010 H   0  0  0  0  0  0  0  0  0  0  0  0
   -2.1831    1.3304    2.2538 H   0  0  0  0  0  0  0  0  0  0  0  0
   -4.3098    4.1380    2.3511 H   0  0  0  0  0  0  0  0  0  0  0  0
   -5.6274    3.3183    3.1044 H   0  0  0  0  0  0  0  0  0  0  0  0
    1.4077    2.3775    0.4414 H   0  0  0  0  0  0  0  0  0  0  0  0
    2.0041    3.3641   -1.6372 H   0  0  0  0  0  0  0  0  0  0  0  0
    3.1920    0.9777   -1.6079 H   0  0  0  0  0  0  0  0  0  0  0  0
    3.2236    0.6470    0.1401 H   0  0  0  0  0  0  0  0  0  0  0  0
    3.8218    3.0506    0.4271 H   0  0  0  0  0  0  0  0  0  0  0  0
    5.5499   -0.3945   -1.5642 H   0  0  0  0  0  0  0  0  0  0  0  0
    6.2540   -2.4017   -0.2673 H   0  0  0  0  0  0  0  0  0  0  0  0
    7.1818   -2.1347    2.0165 H   0  0  0  0  0  0  0  0  0  0  0  0
    7.4342    0.1297    2.9972 H   0  0  0  0  0  0  0  0  0  0  0  0
    6.7390    2.1373    1.6903 H   0  0  0  0  0  0  0  0  0  0  0  0
  1 24  1  0  0  0  0
  1 19  1  0  0  0  0
  1 37  1  1  0  0  0
  2  3  1  0  0  0  0
  2  1  1  0  0  0  0
  3  4  2  0  0  0  0
  4  5  1  0  0  0  0
  4 40  1  0  0  0  0
  5 41  1  0  0  0  0
  6  9  1  0  0  0  0
  6  5  2  0  0  0  0
  7  6  1  0  0  0  0
  8  7  2  0  0  0  0
  8  3  1  0  0  0  0
  9 10  1  0  0  0  0
 10 44  1  0  0  0  0
 10 11  1  0  0  0  0
 11 12  1  0  0  0  0
 11 47  1  0  0  0  0
 11 46  1  0  0  0  0
 12 49  1  0  0  0  0
 13 12  1  0  0  0  0
 13 14  2  0  0  0  0
 15 16  1  0  0  0  0
 15 13  1  0  0  0  0
 16 51  1  6  0  0  0
 16 20  1  0  0  0  0
 17 19  1  0  0  0  0
 17 16  1  0  0  0  0
 18 17  2  0  0  0  0
 19 52  1  0  0  0  0
 20 53  1  0  0  0  0
 20 54  1  0  0  0  0
 20 21  1  0  0  0  0
 21 23  1  0  0  0  0
 21 22  2  0  0  0  0
 23 56  1  0  0  0  0
 24 57  1  1  0  0  0
 25 24  1  0  0  0  0
 26 24  1  0  0  0  0
 26 27  1  0  0  0  0
 26 60  1  0  0  0  0
 27 61  1  0  0  0  0
 28 27  1  0  0  0  0
 28 30  2  0  0  0  0
 28 31  1  0  0  0  0
 29 28  2  0  0  0  0
 31 36  1  0  0  0  0
 32 31  2  0  0  0  0
 32 33  1  0  0  0  0
 33 34  2  0  0  0  0
 34 35  1  0  0  0  0
 34 64  1  0  0  0  0
 35 65  1  0  0  0  0
 36 66  1  0  0  0  0
 36 35  2  0  0  0  0
 38  2  1  0  0  0  0
 39  2  1  0  0  0  0
 42  7  1  0  0  0  0
 43  8  1  0  0  0  0
 45 10  1  0  0  0  0
 48 12  1  0  0  0  0
 50 15  1  0  0  0  0
 55 23  1  0  0  0  0
 58 25  1  0  0  0  0
 59 26  1  0  0  0  0
 62 32  1  0  0  0  0
 63 33  1  0  0  0  0
M  END
