omegacsd_CUHNEY10_02.xyz
 OpenBabel12161914463D

 44 47  0  0  1  0  0  0  0  0999 V2000
   -0.8177   -5.4150   -0.9068 Cl  0  0  0  0  0  0  0  0  0  0  0  0
   -1.3195   -3.7548   -0.8796 C   0  0  0  0  0  0  0  0  0  0  0  0
   -1.0060   -2.9478    0.2006 C   0  0  0  0  0  0  0  0  0  0  0  0
   -1.3751   -1.6698    0.2699 N   0  0  0  0  0  0  0  0  0  0  0  0
   -2.0863   -1.1470   -0.7277 C   0  0  0  0  0  0  0  0  0  0  0  0
   -2.4404    0.2069   -0.5638 N   0  0  0  0  0  0  0  0  0  0  0  0
   -3.3589    0.9294   -1.3444 C   0  0  0  0  0  0  0  0  0  0  0  0
   -3.9756    0.5128   -2.2984 O   0  0  0  0  0  0  0  0  0  0  0  0
   -3.3986    2.2830   -0.7388 C   0  0  0  0  0  0  0  0  0  0  0  0
   -4.1336    3.3230   -1.1285 N   0  0  0  0  0  0  0  0  0  0  0  0
   -3.9633    4.4046   -0.3814 C   0  0  0  0  0  0  0  0  0  0  0  0
   -3.0917    4.4460    0.7185 C   0  0  0  0  0  0  0  0  0  0  0  0
   -2.3631    3.3940    1.0909 N   0  0  0  0  0  0  0  0  0  0  0  0
   -2.5329    2.3237    0.3342 C   0  0  0  0  0  0  0  0  0  0  0  0
   -1.8440    1.0096    0.5058 C   0  0  2  0  0  0  0  0  0  0  0  0
   -0.4432    1.1138    0.2504 O   0  0  0  0  0  0  0  0  0  0  0  0
    0.3889    0.8359    1.2895 C   0  0  0  0  0  0  0  0  0  0  0  0
    0.0670    0.9109    2.4546 O   0  0  0  0  0  0  0  0  0  0  0  0
    1.6231    0.4660    0.8414 N   0  0  0  0  0  0  0  0  0  0  0  0
    1.8116    0.0300   -0.5429 C   0  0  0  0  0  0  0  0  0  0  0  0
    3.2895    0.1603   -0.9186 C   0  0  0  0  0  0  0  0  0  0  0  0
    4.1990   -0.4821    0.0183 N   0  0  0  0  0  0  0  0  0  0  0  0
    3.9748    0.0321    1.3618 C   0  0  0  0  0  0  0  0  0  0  0  0
    2.5266   -0.1003    1.8378 C   0  0  0  0  0  0  0  0  0  0  0  0
    4.1905   -1.9311   -0.0671 C   0  0  0  0  0  0  0  0  0  0  0  0
   -2.4434   -1.8855   -1.8678 C   0  0  0  0  0  0  0  0  0  0  0  0
   -2.0469   -3.2104   -1.9321 C   0  0  0  0  0  0  0  0  0  0  0  0
   -0.4375   -3.3445    1.0397 H   0  0  0  0  0  0  0  0  0  0  0  0
   -4.5415    5.2842   -0.6555 H   0  0  0  0  0  0  0  0  0  0  0  0
   -2.9877    5.3536    1.3073 H   0  0  0  0  0  0  0  0  0  0  0  0
   -1.9859    0.5690    1.4994 H   0  0  0  0  0  0  0  0  0  0  0  0
    1.4543   -1.0051   -0.6689 H   0  0  0  0  0  0  0  0  0  0  0  0
    1.2045    0.6613   -1.1910 H   0  0  0  0  0  0  0  0  0  0  0  0
    3.4617   -0.2561   -1.9182 H   0  0  0  0  0  0  0  0  0  0  0  0
    3.5454    1.2270   -0.9571 H   0  0  0  0  0  0  0  0  0  0  0  0
    4.6495   -0.4841    2.0552 H   0  0  0  0  0  0  0  0  0  0  0  0
    4.2518    1.0943    1.3633 H   0  0  0  0  0  0  0  0  0  0  0  0
    2.2751   -1.1558    2.0365 H   0  0  0  0  0  0  0  0  0  0  0  0
    2.3702    0.4479    2.7685 H   0  0  0  0  0  0  0  0  0  0  0  0
    4.9490   -2.3360    0.6112 H   0  0  0  0  0  0  0  0  0  0  0  0
    3.2263   -2.4124    0.1775 H   0  0  0  0  0  0  0  0  0  0  0  0
    4.4630   -2.2301   -1.0850 H   0  0  0  0  0  0  0  0  0  0  0  0
   -3.0172   -1.4294   -2.6617 H   0  0  0  0  0  0  0  0  0  0  0  0
   -2.3110   -3.8220   -2.7895 H   0  0  0  0  0  0  0  0  0  0  0  0
  1  2  1  0  0  0  0
  2  3  2  0  0  0  0
  3  4  1  0  0  0  0
  3 28  1  0  0  0  0
  5  6  1  0  0  0  0
  5  4  2  0  0  0  0
  6 15  1  0  0  0  0
  7  9  1  0  0  0  0
  7  6  1  0  0  0  0
  8  7  2  0  0  0  0
  9 14  1  0  0  0  0
 10  9  2  0  0  0  0
 10 11  1  0  0  0  0
 11 12  2  0  0  0  0
 12 13  1  0  0  0  0
 12 30  1  0  0  0  0
 14 15  1  0  0  0  0
 14 13  2  0  0  0  0
 15 31  1  1  0  0  0
 16 15  1  0  0  0  0
 16 17  1  0  0  0  0
 17 18  2  0  0  0  0
 19 17  1  0  0  0  0
 19 24  1  0  0  0  0
 20 19  1  0  0  0  0
 21 20  1  0  0  0  0
 21 22  1  0  0  0  0
 22 23  1  0  0  0  0
 23 37  1  0  0  0  0
 23 24  1  0  0  0  0
 23 36  1  0  0  0  0
 24 38  1  0  0  0  0
 24 39  1  0  0  0  0
 25 22  1  0  0  0  0
 25 41  1  0  0  0  0
 25 40  1  0  0  0  0
 26  5  1  0  0  0  0
 27 26  2  0  0  0  0
 27  2  1  0  0  0  0
 29 11  1  0  0  0  0
 32 20  1  0  0  0  0
 33 20  1  0  0  0  0
 34 21  1  0  0  0  0
 35 21  1  0  0  0  0
 42 25  1  0  0  0  0
 43 26  1  0  0  0  0
 44 27  1  0  0  0  0
M  END
