omegacsd_FABSOQ10_10.xyz
 OpenBabel12161914463D

 45 47  0  0  1  0  0  0  0  0999 V2000
   -0.5400    0.7392    1.1622 S   0  0  0  0  0  0  0  0  0  0  0  0
   -0.9510    1.3921   -0.3836 C   0  0  0  0  0  0  0  0  0  0  0  0
    0.0031    1.0875   -1.3162 C   0  0  0  0  0  0  0  0  0  0  0  0
    1.0736    0.3149   -0.7868 C   0  0  0  0  0  0  0  0  0  0  0  0
    0.9257    0.0420    0.5417 C   0  0  0  0  0  0  0  0  0  0  0  0
    1.7863   -0.8310    1.4282 C   0  0  1  0  0  0  0  0  0  0  0  0
    1.2257   -2.1224    1.5797 O   0  0  0  0  0  0  0  0  0  0  0  0
    3.1897   -0.9785    0.8872 C   0  0  0  0  0  0  0  0  0  0  0  0
    4.0865    0.0750    1.0173 C   0  0  0  0  0  0  0  0  0  0  0  0
    5.3888   -0.0202    0.5301 C   0  0  0  0  0  0  0  0  0  0  0  0
    5.7976   -1.1920   -0.1049 C   0  0  0  0  0  0  0  0  0  0  0  0
    7.0405   -1.3954   -0.6173 O   0  0  0  0  0  0  0  0  0  0  0  0
    7.9860   -0.3596   -0.4646 C   0  0  0  0  0  0  0  0  0  0  0  0
    4.8992   -2.2556   -0.2454 C   0  0  0  0  0  0  0  0  0  0  0  0
    3.6108   -2.1466    0.2500 C   0  0  0  0  0  0  0  0  0  0  0  0
   -2.2148    2.2032   -0.5688 C   0  0  2  0  0  0  0  0  0  0  0  0
   -2.2618    3.3159    0.3024 O   0  0  0  0  0  0  0  0  0  0  0  0
   -3.4634    1.3752   -0.3513 C   0  0  0  0  0  0  0  0  0  0  0  0
   -4.2750    1.5581    0.7612 C   0  0  0  0  0  0  0  0  0  0  0  0
   -5.4052    0.7692    0.9621 C   0  0  0  0  0  0  0  0  0  0  0  0
   -5.7357   -0.2102    0.0277 C   0  0  0  0  0  0  0  0  0  0  0  0
   -6.8164   -1.0282    0.1229 O   0  0  0  0  0  0  0  0  0  0  0  0
   -7.6551   -0.8694    1.2458 C   0  0  0  0  0  0  0  0  0  0  0  0
   -4.9284   -0.3959   -1.1007 C   0  0  0  0  0  0  0  0  0  0  0  0
   -3.8063    0.3924   -1.2810 C   0  0  0  0  0  0  0  0  0  0  0  0
   -0.0655    1.4096   -2.3494 H   0  0  0  0  0  0  0  0  0  0  0  0
    1.9321   -0.0344   -1.3534 H   0  0  0  0  0  0  0  0  0  0  0  0
    1.8630   -0.3361    2.4116 H   0  0  0  0  0  0  0  0  0  0  0  0
    0.2953   -2.0111    1.8217 H   0  0  0  0  0  0  0  0  0  0  0  0
    3.7722    0.9900    1.5177 H   0  0  0  0  0  0  0  0  0  0  0  0
    6.0688    0.8149    0.6600 H   0  0  0  0  0  0  0  0  0  0  0  0
    8.1782   -0.1427    0.5944 H   0  0  0  0  0  0  0  0  0  0  0  0
    7.6570    0.5609   -0.9640 H   0  0  0  0  0  0  0  0  0  0  0  0
    8.9044   -0.7174   -0.9321 H   0  0  0  0  0  0  0  0  0  0  0  0
    5.2450   -3.1602   -0.7378 H   0  0  0  0  0  0  0  0  0  0  0  0
    2.9141   -2.9753    0.1557 H   0  0  0  0  0  0  0  0  0  0  0  0
   -2.2177    2.5442   -1.6195 H   0  0  0  0  0  0  0  0  0  0  0  0
   -1.4166    3.7797    0.2311 H   0  0  0  0  0  0  0  0  0  0  0  0
   -4.0217    2.3337    1.4783 H   0  0  0  0  0  0  0  0  0  0  0  0
   -6.0159    0.9297    1.8444 H   0  0  0  0  0  0  0  0  0  0  0  0
   -7.1135   -1.0585    2.1815 H   0  0  0  0  0  0  0  0  0  0  0  0
   -8.0902    0.1376    1.2828 H   0  0  0  0  0  0  0  0  0  0  0  0
   -8.4532   -1.6047    1.1357 H   0  0  0  0  0  0  0  0  0  0  0  0
   -5.2065   -1.1658   -1.8138 H   0  0  0  0  0  0  0  0  0  0  0  0
   -3.1897    0.2462   -2.1654 H   0  0  0  0  0  0  0  0  0  0  0  0
  2  1  1  0  0  0  0
  3  4  1  0  0  0  0
  3  2  2  0  0  0  0
  4  5  2  0  0  0  0
  5  1  1  0  0  0  0
  5  6  1  0  0  0  0
  6  7  1  0  0  0  0
  6 28  1  1  0  0  0
  7 29  1  0  0  0  0
  8  9  1  0  0  0  0
  8  6  1  0  0  0  0
  9 30  1  0  0  0  0
 10 31  1  0  0  0  0
 10  9  2  0  0  0  0
 11 10  1  0  0  0  0
 12 13  1  0  0  0  0
 12 11  1  0  0  0  0
 13 32  1  0  0  0  0
 14 11  2  0  0  0  0
 14 15  1  0  0  0  0
 15  8  2  0  0  0  0
 16 37  1  6  0  0  0
 16  2  1  0  0  0  0
 16 18  1  0  0  0  0
 16 17  1  0  0  0  0
 18 19  2  0  0  0  0
 19 20  1  0  0  0  0
 19 39  1  0  0  0  0
 20 40  1  0  0  0  0
 21 22  1  0  0  0  0
 21 20  2  0  0  0  0
 22 23  1  0  0  0  0
 23 42  1  0  0  0  0
 23 41  1  0  0  0  0
 24 21  1  0  0  0  0
 25 24  2  0  0  0  0
 25 18  1  0  0  0  0
 26  3  1  0  0  0  0
 27  4  1  0  0  0  0
 33 13  1  0  0  0  0
 34 13  1  0  0  0  0
 35 14  1  0  0  0  0
 36 15  1  0  0  0  0
 38 17  1  0  0  0  0
 43 23  1  0  0  0  0
 44 24  1  0  0  0  0
 45 25  1  0  0  0  0
M  END
