omegapdb_1m5f_21.xyz
 OpenBabel12161914463D

 25 25  0  0  1  0  0  0  0  0999 V2000
    0.1679   -1.9751   -1.9541 O   0  0  0  0  0  0  0  0  0  0  0  0
   -0.7567   -2.4363   -1.0897 C   0  0  0  0  0  0  0  0  0  0  0  0
   -1.0436   -3.5948   -0.9668 O   0  0  0  0  0  0  0  0  0  0  0  0
   -1.4029   -1.3198   -0.3380 C   0  0  0  0  0  0  0  0  0  0  0  0
   -2.5106   -1.5900    0.3013 N   0  0  0  0  0  0  0  0  0  0  0  0
   -2.9053   -0.4128    0.8649 O   0  0  0  0  0  0  0  0  0  0  0  0
   -2.0308    0.5611    0.5589 C   0  0  0  0  0  0  0  0  0  0  0  0
   -1.0194    0.0492   -0.2017 C   0  0  0  0  0  0  0  0  0  0  0  0
    0.2575    0.7319   -0.5915 C   0  0  0  0  0  0  0  0  0  0  0  0
    1.3921    0.4950    0.4245 C   0  0  2  0  0  0  0  0  0  0  0  0
    2.5699    1.3045    0.0970 N   0  0  0  0  0  0  0  0  0  0  0  0
    1.8026   -0.9909    0.4198 C   0  0  0  0  0  0  0  0  0  0  0  0
    1.1239   -1.8648    0.8964 O   0  0  0  0  0  0  0  0  0  0  0  0
    2.9707   -1.2275   -0.1802 O   0  0  0  0  0  0  0  0  0  0  0  0
   -2.3272    1.9139    1.0972 C   0  0  0  0  0  0  0  0  0  0  0  0
    0.5753   -2.7575   -2.3602 H   0  0  0  0  0  0  0  0  0  0  0  0
    0.5814    0.3992   -1.5801 H   0  0  0  0  0  0  0  0  0  0  0  0
    0.0830    1.8153   -0.6510 H   0  0  0  0  0  0  0  0  0  0  0  0
    1.0001    0.7158    1.4267 H   0  0  0  0  0  0  0  0  0  0  0  0
    3.0699    1.5687    0.9412 H   0  0  0  0  0  0  0  0  0  0  0  0
    2.3126    2.1600   -0.3836 H   0  0  0  0  0  0  0  0  0  0  0  0
    3.3054   -0.3421   -0.4513 H   0  0  0  0  0  0  0  0  0  0  0  0
   -3.3613    2.1947    0.8832 H   0  0  0  0  0  0  0  0  0  0  0  0
   -2.1887    1.9407    2.1830 H   0  0  0  0  0  0  0  0  0  0  0  0
   -1.6657    2.6614    0.6544 H   0  0  0  0  0  0  0  0  0  0  0  0
  1  2  1  0  0  0  0
  2  3  2  0  0  0  0
  2  4  1  0  0  0  0
  4  8  1  0  0  0  0
  4  5  2  0  0  0  0
  5  6  1  0  0  0  0
  7  6  1  0  0  0  0
  7 15  1  0  0  0  0
  8  7  2  0  0  0  0
  9  8  1  0  0  0  0
  9 10  1  0  0  0  0
 10 19  1  1  0  0  0
 11 10  1  0  0  0  0
 11 20  1  0  0  0  0
 12 10  1  0  0  0  0
 12 13  2  0  0  0  0
 14 12  1  0  0  0  0
 15 24  1  0  0  0  0
 16  1  1  0  0  0  0
 17  9  1  0  0  0  0
 18  9  1  0  0  0  0
 21 11  1  0  0  0  0
 22 14  1  0  0  0  0
 23 15  1  0  0  0  0
 25 15  1  0  0  0  0
M  END
