omegacsd_CDBMPI10_02.xyz
 OpenBabel12161914463D

 46 48  0  0  1  0  0  0  0  0999 V2000
    3.4455    2.1290   -0.2473 O   0  0  0  0  0  0  0  0  0  0  0  0
    2.7814    1.1048   -0.1689 C   0  0  0  0  0  0  0  0  0  0  0  0
    1.4134    1.1270   -0.2896 N   0  0  0  0  0  0  0  0  0  0  0  0
    0.6073    0.0099   -0.8005 C   0  0  1  0  0  0  0  0  0  0  0  0
   -0.8501    0.4665   -0.9304 C   0  0  0  0  0  0  0  0  0  0  0  0
   -1.2808    1.1623    0.2737 N   0  0  0  0  0  0  0  0  0  0  0  0
   -0.4697    2.3016    0.7235 C   0  0  1  0  0  0  0  0  0  0  0  0
    0.7553    2.4241   -0.1739 C   0  0  0  0  0  0  0  0  0  0  0  0
   -1.2808    3.5939    0.7713 C   0  0  0  0  0  0  0  0  0  0  0  0
   -2.1833    0.6756    1.1828 C   0  0  0  0  0  0  0  0  0  0  0  0
   -2.1512    1.0179    2.3591 O   0  0  0  0  0  0  0  0  0  0  0  0
   -3.2155   -0.3100    0.7102 C   0  0  0  0  0  0  0  0  0  0  0  0
   -3.8849   -0.1893   -0.5086 C   0  0  0  0  0  0  0  0  0  0  0  0
   -4.8587   -1.1177   -0.8645 C   0  0  0  0  0  0  0  0  0  0  0  0
   -5.1676   -2.1700   -0.0064 C   0  0  0  0  0  0  0  0  0  0  0  0
   -4.5150   -2.2808    1.2196 C   0  0  0  0  0  0  0  0  0  0  0  0
   -3.5553   -1.3441    1.5828 C   0  0  0  0  0  0  0  0  0  0  0  0
    1.1132   -0.5605   -2.1223 C   0  0  0  0  0  0  0  0  0  0  0  0
    3.4566   -0.2227    0.0602 C   0  0  0  0  0  0  0  0  0  0  0  0
    2.9619   -1.1773    0.9520 C   0  0  0  0  0  0  0  0  0  0  0  0
    3.6394   -2.3771    1.1430 C   0  0  0  0  0  0  0  0  0  0  0  0
    4.8155   -2.6356    0.4445 C   0  0  0  0  0  0  0  0  0  0  0  0
    5.3258   -1.6767   -0.4284 C   0  0  0  0  0  0  0  0  0  0  0  0
    4.6582   -0.4703   -0.6052 C   0  0  0  0  0  0  0  0  0  0  0  0
    0.6255   -0.7852   -0.0492 H   0  0  0  0  0  0  0  0  0  0  0  0
   -1.4832   -0.4059   -1.0913 H   0  0  0  0  0  0  0  0  0  0  0  0
   -0.9528    1.1233   -1.8065 H   0  0  0  0  0  0  0  0  0  0  0  0
   -0.1379    2.0517    1.7384 H   0  0  0  0  0  0  0  0  0  0  0  0
    0.4675    2.8099   -1.1636 H   0  0  0  0  0  0  0  0  0  0  0  0
    1.4812    3.1207    0.2454 H   0  0  0  0  0  0  0  0  0  0  0  0
   -0.6430    4.4253    1.0923 H   0  0  0  0  0  0  0  0  0  0  0  0
   -2.1018    3.5012    1.4870 H   0  0  0  0  0  0  0  0  0  0  0  0
   -1.6963    3.8286   -0.2162 H   0  0  0  0  0  0  0  0  0  0  0  0
   -3.6479    0.6342   -1.1790 H   0  0  0  0  0  0  0  0  0  0  0  0
   -5.3645   -1.0253   -1.8208 H   0  0  0  0  0  0  0  0  0  0  0  0
   -5.9209   -2.9000   -0.2910 H   0  0  0  0  0  0  0  0  0  0  0  0
   -4.7603   -3.0945    1.8976 H   0  0  0  0  0  0  0  0  0  0  0  0
   -3.0528   -1.3979    2.5450 H   0  0  0  0  0  0  0  0  0  0  0  0
    2.0971   -1.0223   -2.0120 H   0  0  0  0  0  0  0  0  0  0  0  0
    0.4192   -1.3342   -2.4678 H   0  0  0  0  0  0  0  0  0  0  0  0
    1.1724    0.2195   -2.8897 H   0  0  0  0  0  0  0  0  0  0  0  0
    2.0516   -0.9742    1.5112 H   0  0  0  0  0  0  0  0  0  0  0  0
    3.2368   -3.1126    1.8337 H   0  0  0  0  0  0  0  0  0  0  0  0
    5.3382   -3.5774    0.5877 H   0  0  0  0  0  0  0  0  0  0  0  0
    6.2516   -1.8640   -0.9665 H   0  0  0  0  0  0  0  0  0  0  0  0
    5.0593    0.2986   -1.2608 H   0  0  0  0  0  0  0  0  0  0  0  0
  1  2  2  0  0  0  0
  2 19  1  0  0  0  0
  3  8  1  0  0  0  0
  3  2  1  0  0  0  0
  4  3  1  0  0  0  0
  4 25  1  1  0  0  0
  5  4  1  0  0  0  0
  5  6  1  0  0  0  0
  6  7  1  0  0  0  0
  6 10  1  0  0  0  0
  7  9  1  0  0  0  0
  7 28  1  1  0  0  0
  8 30  1  0  0  0  0
  8  7  1  0  0  0  0
  9 31  1  0  0  0  0
  9 32  1  0  0  0  0
 10 11  2  0  0  0  0
 12 10  1  0  0  0  0
 12 17  2  0  0  0  0
 13 12  1  0  0  0  0
 14 13  2  0  0  0  0
 14 15  1  0  0  0  0
 15 16  2  0  0  0  0
 16 17  1  0  0  0  0
 16 37  1  0  0  0  0
 17 38  1  0  0  0  0
 18 39  1  0  0  0  0
 18  4  1  0  0  0  0
 19 20  2  0  0  0  0
 20 21  1  0  0  0  0
 20 42  1  0  0  0  0
 21 43  1  0  0  0  0
 22 44  1  0  0  0  0
 22 21  2  0  0  0  0
 23 22  1  0  0  0  0
 24 23  2  0  0  0  0
 24 19  1  0  0  0  0
 26  5  1  0  0  0  0
 27  5  1  0  0  0  0
 29  8  1  0  0  0  0
 33  9  1  0  0  0  0
 34 13  1  0  0  0  0
 35 14  1  0  0  0  0
 36 15  1  0  0  0  0
 40 18  1  0  0  0  0
 41 18  1  0  0  0  0
 45 23  1  0  0  0  0
 46 24  1  0  0  0  0
M  END
