omegapdb_1m5f_01.xyz
 OpenBabel12161914463D

 25 25  0  0  1  0  0  0  0  0999 V2000
    0.0497   -2.5623   -1.1528 O   0  0  0  0  0  0  0  0  0  0  0  0
   -1.2893   -2.3568   -1.2774 C   0  0  0  0  0  0  0  0  0  0  0  0
   -2.0123   -3.1429   -1.8236 O   0  0  0  0  0  0  0  0  0  0  0  0
   -1.6998   -1.0585   -0.6768 C   0  0  0  0  0  0  0  0  0  0  0  0
   -2.8710   -0.5796   -1.0095 N   0  0  0  0  0  0  0  0  0  0  0  0
   -2.9879    0.6053   -0.3404 O   0  0  0  0  0  0  0  0  0  0  0  0
   -1.8891    0.8293    0.4010 C   0  0  0  0  0  0  0  0  0  0  0  0
   -1.0034   -0.1969    0.2317 C   0  0  0  0  0  0  0  0  0  0  0  0
    0.3557   -0.2964    0.8503 C   0  0  0  0  0  0  0  0  0  0  0  0
    1.4091    0.5429    0.1102 C   0  0  2  0  0  0  0  0  0  0  0  0
    1.7146    0.1006   -1.2499 N   0  0  0  0  0  0  0  0  0  0  0  0
    2.7069    0.6046    0.9354 C   0  0  0  0  0  0  0  0  0  0  0  0
    2.7067    0.8046    2.1248 O   0  0  0  0  0  0  0  0  0  0  0  0
    3.8137    0.4420    0.2144 O   0  0  0  0  0  0  0  0  0  0  0  0
   -1.8623    2.0885    1.1955 C   0  0  0  0  0  0  0  0  0  0  0  0
    0.2249   -3.4249   -1.5659 H   0  0  0  0  0  0  0  0  0  0  0  0
    0.3305    0.0638    1.8846 H   0  0  0  0  0  0  0  0  0  0  0  0
    0.6760   -1.3409    0.8898 H   0  0  0  0  0  0  0  0  0  0  0  0
    1.0514    1.5798    0.0663 H   0  0  0  0  0  0  0  0  0  0  0  0
    1.2011    0.6355   -1.9416 H   0  0  0  0  0  0  0  0  0  0  0  0
    1.4443   -0.8740   -1.3625 H   0  0  0  0  0  0  0  0  0  0  0  0
    3.4895    0.2770   -0.7047 H   0  0  0  0  0  0  0  0  0  0  0  0
   -1.4815    2.9279    0.6005 H   0  0  0  0  0  0  0  0  0  0  0  0
   -1.2097    1.9837    2.0671 H   0  0  0  0  0  0  0  0  0  0  0  0
   -2.8677    2.3477    1.5338 H   0  0  0  0  0  0  0  0  0  0  0  0
  2  1  1  0  0  0  0
  2  4  1  0  0  0  0
  3  2  2  0  0  0  0
  4  8  1  0  0  0  0
  5  4  2  0  0  0  0
  5  6  1  0  0  0  0
  6  7  1  0  0  0  0
  7 15  1  0  0  0  0
  8  7  2  0  0  0  0
  8  9  1  0  0  0  0
  9 18  1  0  0  0  0
  9 17  1  0  0  0  0
 10 19  1  6  0  0  0
 10  9  1  0  0  0  0
 10 12  1  0  0  0  0
 11 10  1  0  0  0  0
 12 13  2  0  0  0  0
 14 12  1  0  0  0  0
 15 25  1  0  0  0  0
 15 24  1  0  0  0  0
 16  1  1  0  0  0  0
 20 11  1  0  0  0  0
 21 11  1  0  0  0  0
 22 14  1  0  0  0  0
 23 15  1  0  0  0  0
M  END
