omegacsd_CEJTIU_02.xyz
 OpenBabel12161914463D

 41 42  0  0  0  0  0  0  0  0999 V2000
   -6.3078    1.5944   -0.0281 C   0  0  0  0  0  0  0  0  0  0  0  0
   -5.5347    0.6664    0.7635 N   0  0  0  0  0  0  0  0  0  0  0  0
   -6.1365   -0.0167    1.8851 C   0  0  0  0  0  0  0  0  0  0  0  0
   -4.2371    0.3750    0.3998 C   0  0  0  0  0  0  0  0  0  0  0  0
   -3.6259    1.0016   -0.7035 C   0  0  0  0  0  0  0  0  0  0  0  0
   -2.3114    0.7425   -1.0613 C   0  0  0  0  0  0  0  0  0  0  0  0
   -1.5559   -0.1748   -0.3325 C   0  0  0  0  0  0  0  0  0  0  0  0
   -2.1519   -0.8217    0.7514 C   0  0  0  0  0  0  0  0  0  0  0  0
   -3.4611   -0.5552    1.1179 C   0  0  0  0  0  0  0  0  0  0  0  0
   -0.2264   -0.5055   -0.6419 N   0  0  0  0  0  0  0  0  0  0  0  0
    0.6192    0.2127   -1.4307 C   0  0  0  0  0  0  0  0  0  0  0  0
    0.3625    1.2385   -2.0322 O   0  0  0  0  0  0  0  0  0  0  0  0
    1.9222   -0.3284   -1.5379 N   0  0  0  0  0  0  0  0  0  0  0  0
    2.4565   -1.4412   -0.9359 C   0  0  0  0  0  0  0  0  0  0  0  0
    1.8327   -2.1549   -0.1621 O   0  0  0  0  0  0  0  0  0  0  0  0
    3.9166   -1.6850   -1.2645 C   0  0  0  0  0  0  0  0  0  0  0  0
    4.8104   -0.7756   -0.4438 C   0  0  0  0  0  0  0  0  0  0  0  0
    4.6848   -0.7613    0.9463 C   0  0  0  0  0  0  0  0  0  0  0  0
    5.5136    0.0414    1.7224 C   0  0  0  0  0  0  0  0  0  0  0  0
    6.4699    0.8512    1.1141 C   0  0  0  0  0  0  0  0  0  0  0  0
    6.5954    0.8486   -0.2715 C   0  0  0  0  0  0  0  0  0  0  0  0
    5.7674    0.0383   -1.0456 C   0  0  0  0  0  0  0  0  0  0  0  0
   -5.8270    2.5805   -0.0710 H   0  0  0  0  0  0  0  0  0  0  0  0
   -6.4411    1.2404   -1.0600 H   0  0  0  0  0  0  0  0  0  0  0  0
   -7.2973    1.7205    0.4191 H   0  0  0  0  0  0  0  0  0  0  0  0
   -6.2088   -1.1007    1.7159 H   0  0  0  0  0  0  0  0  0  0  0  0
   -5.5607    0.1434    2.8064 H   0  0  0  0  0  0  0  0  0  0  0  0
   -7.1466    0.3701    2.0476 H   0  0  0  0  0  0  0  0  0  0  0  0
   -4.1801    1.7148   -1.3029 H   0  0  0  0  0  0  0  0  0  0  0  0
   -1.8671    1.2575   -1.9041 H   0  0  0  0  0  0  0  0  0  0  0  0
   -1.5721   -1.5420    1.3275 H   0  0  0  0  0  0  0  0  0  0  0  0
   -3.8799   -1.0841    1.9663 H   0  0  0  0  0  0  0  0  0  0  0  0
    0.1824   -1.3165   -0.1821 H   0  0  0  0  0  0  0  0  0  0  0  0
    2.5281    0.2461   -2.1049 H   0  0  0  0  0  0  0  0  0  0  0  0
    4.1120   -2.7375   -1.0352 H   0  0  0  0  0  0  0  0  0  0  0  0
    4.0921   -1.5325   -2.3357 H   0  0  0  0  0  0  0  0  0  0  0  0
    3.9247   -1.3881    1.4099 H   0  0  0  0  0  0  0  0  0  0  0  0
    5.4118    0.0388    2.8048 H   0  0  0  0  0  0  0  0  0  0  0  0
    7.1144    1.4829    1.7210 H   0  0  0  0  0  0  0  0  0  0  0  0
    7.3409    1.4782   -0.7523 H   0  0  0  0  0  0  0  0  0  0  0  0
    5.8718    0.0376   -2.1292 H   0  0  0  0  0  0  0  0  0  0  0  0
  1 25  1  0  0  0  0
  1  2  1  0  0  0  0
  2  3  1  0  0  0  0
  3 28  1  0  0  0  0
  3 27  1  0  0  0  0
  4  2  1  0  0  0  0
  4  9  2  0  0  0  0
  5  4  1  0  0  0  0
  6  5  2  0  0  0  0
  6  7  1  0  0  0  0
  7  8  2  0  0  0  0
  8  9  1  0  0  0  0
  8 31  1  0  0  0  0
  9 32  1  0  0  0  0
 10  7  1  0  0  0  0
 10 33  1  0  0  0  0
 11 10  1  0  0  0  0
 12 11  2  0  0  0  0
 13 11  1  0  0  0  0
 13 14  1  0  0  0  0
 14 15  2  0  0  0  0
 16 35  1  0  0  0  0
 16 14  1  0  0  0  0
 16 17  1  0  0  0  0
 17 18  1  0  0  0  0
 18 37  1  0  0  0  0
 18 19  2  0  0  0  0
 19 38  1  0  0  0  0
 20 39  1  0  0  0  0
 20 19  1  0  0  0  0
 21 20  2  0  0  0  0
 22 17  2  0  0  0  0
 22 21  1  0  0  0  0
 23  1  1  0  0  0  0
 24  1  1  0  0  0  0
 26  3  1  0  0  0  0
 29  5  1  0  0  0  0
 30  6  1  0  0  0  0
 34 13  1  0  0  0  0
 36 16  1  0  0  0  0
 40 21  1  0  0  0  0
 41 22  1  0  0  0  0
M  END
