omegapdb_1v2k_10.xyz
 OpenBabel12161914463D

 61 65  0  0  0  0  0  0  0  0999 V2000
    9.0149    0.2934   -1.6398 N   0  0  0  0  0  0  0  0  0  0  0  0
    8.1213    1.1866   -2.0694 C   0  0  0  0  0  0  0  0  0  0  0  0
    6.8228    1.3018   -1.5976 C   0  0  0  0  0  0  0  0  0  0  0  0
    6.3844    0.4311   -0.5833 C   0  0  0  0  0  0  0  0  0  0  0  0
    7.3178   -0.5173   -0.1272 C   0  0  0  0  0  0  0  0  0  0  0  0
    8.5873   -0.5337   -0.6838 C   0  0  0  0  0  0  0  0  0  0  0  0
    5.1184    0.5049   -0.0654 N   0  0  0  0  0  0  0  0  0  0  0  0
    4.0477    1.1747   -0.7847 C   0  0  0  0  0  0  0  0  0  0  0  0
    2.6941    0.5699   -0.4189 C   0  0  0  0  0  0  0  0  0  0  0  0
    2.3856    0.6891    1.0920 C   0  0  0  0  0  0  0  0  0  0  0  0
    3.6862    0.6958    1.9095 C   0  0  0  0  0  0  0  0  0  0  0  0
    4.7906   -0.0973    1.2150 C   0  0  0  0  0  0  0  0  0  0  0  0
    1.5012   -0.4872    1.5099 C   0  0  0  0  0  0  0  0  0  0  0  0
    1.9760   -1.4640    2.0747 O   0  0  0  0  0  0  0  0  0  0  0  0
    0.1709   -0.4544    1.1941 N   0  0  0  0  0  0  0  0  0  0  0  0
   -0.5323    0.6120    0.4998 C   0  0  0  0  0  0  0  0  0  0  0  0
   -1.1107    0.1041   -0.8244 C   0  0  0  0  0  0  0  0  0  0  0  0
   -1.7615   -1.1972   -0.6170 N   0  0  0  0  0  0  0  0  0  0  0  0
   -1.9385   -1.6397    0.7635 C   0  0  0  0  0  0  0  0  0  0  0  0
   -0.5868   -1.6800    1.4614 C   0  0  0  0  0  0  0  0  0  0  0  0
   -2.8323   -1.7189   -1.7688 S   0  0  0  0  0  0  0  0  0  0  0  0
   -2.3310   -1.2503   -3.0479 O   0  0  0  0  0  0  0  0  0  0  0  0
   -3.0769   -3.1262   -1.5065 O   0  0  0  0  0  0  0  0  0  0  0  0
   -4.3276   -0.8268   -1.4097 C   0  0  0  0  0  0  0  0  0  0  0  0
   -5.1336   -1.2494   -0.3874 C   0  0  0  0  0  0  0  0  0  0  0  0
   -6.2812   -0.4884   -0.0347 C   0  0  0  0  0  0  0  0  0  0  0  0
   -6.5868    0.6840   -0.7701 C   0  0  0  0  0  0  0  0  0  0  0  0
   -5.7406    1.0662   -1.8479 C   0  0  0  0  0  0  0  0  0  0  0  0
   -4.6306    0.3288   -2.1651 C   0  0  0  0  0  0  0  0  0  0  0  0
   -7.7298    1.4501   -0.4129 C   0  0  0  0  0  0  0  0  0  0  0  0
   -8.5131    1.0570    0.6368 C   0  0  0  0  0  0  0  0  0  0  0  0
   -8.2227   -0.1147    1.3776 C   0  0  0  0  0  0  0  0  0  0  0  0
   -7.1301   -0.8656    1.0371 C   0  0  0  0  0  0  0  0  0  0  0  0
   -9.9042    2.0044    1.0878 Cl  0  0  0  0  0  0  0  0  0  0  0  0
    8.4641    1.8624   -2.8532 H   0  0  0  0  0  0  0  0  0  0  0  0
    6.1722    2.0724   -1.9991 H   0  0  0  0  0  0  0  0  0  0  0  0
    7.0544   -1.2481    0.6309 H   0  0  0  0  0  0  0  0  0  0  0  0
    9.3121   -1.2667   -0.3293 H   0  0  0  0  0  0  0  0  0  0  0  0
    4.0518    2.2567   -0.5780 H   0  0  0  0  0  0  0  0  0  0  0  0
    4.2180    1.0517   -1.8591 H   0  0  0  0  0  0  0  0  0  0  0  0
    2.7003   -0.4896   -0.7023 H   0  0  0  0  0  0  0  0  0  0  0  0
    1.9129    1.0492   -1.0180 H   0  0  0  0  0  0  0  0  0  0  0  0
    1.8606    1.6295    1.2917 H   0  0  0  0  0  0  0  0  0  0  0  0
    4.0280    1.7287    2.0459 H   0  0  0  0  0  0  0  0  0  0  0  0
    3.5104    0.2793    2.9045 H   0  0  0  0  0  0  0  0  0  0  0  0
    4.4821   -1.1461    1.0964 H   0  0  0  0  0  0  0  0  0  0  0  0
    5.6863   -0.0896    1.8425 H   0  0  0  0  0  0  0  0  0  0  0  0
   -1.3479    0.9891    1.1330 H   0  0  0  0  0  0  0  0  0  0  0  0
    0.1303    1.4557    0.3160 H   0  0  0  0  0  0  0  0  0  0  0  0
   -0.3239   -0.0302   -1.5736 H   0  0  0  0  0  0  0  0  0  0  0  0
   -1.8232    0.8387   -1.2204 H   0  0  0  0  0  0  0  0  0  0  0  0
   -2.6396   -0.9788    1.2973 H   0  0  0  0  0  0  0  0  0  0  0  0
   -2.3666   -2.6443    0.7493 H   0  0  0  0  0  0  0  0  0  0  0  0
   -0.7162   -1.8180    2.5408 H   0  0  0  0  0  0  0  0  0  0  0  0
   -0.0032   -2.5295    1.0915 H   0  0  0  0  0  0  0  0  0  0  0  0
   -4.9078   -2.1592    0.1607 H   0  0  0  0  0  0  0  0  0  0  0  0
   -5.9899    1.9594   -2.4140 H   0  0  0  0  0  0  0  0  0  0  0  0
   -3.9783    0.6054   -2.9883 H   0  0  0  0  0  0  0  0  0  0  0  0
   -7.9712    2.3489   -0.9732 H   0  0  0  0  0  0  0  0  0  0  0  0
   -8.8692   -0.3985    2.2022 H   0  0  0  0  0  0  0  0  0  0  0  0
   -6.8950   -1.7708    1.5930 H   0  0  0  0  0  0  0  0  0  0  0  0
  1  6  1  0  0  0  0
  2  1  2  0  0  0  0
  2  3  1  0  0  0  0
  3  4  2  0  0  0  0
  4  5  1  0  0  0  0
  4  7  1  0  0  0  0
  5 37  1  0  0  0  0
  6 38  1  0  0  0  0
  6  5  2  0  0  0  0
  7 12  1  0  0  0  0
  8 39  1  0  0  0  0
  8  9  1  0  0  0  0
  8  7  1  0  0  0  0
  9 10  1  0  0  0  0
 10 43  1  0  0  0  0
 10 13  1  0  0  0  0
 10 11  1  0  0  0  0
 11 44  1  0  0  0  0
 11 45  1  0  0  0  0
 12 47  1  0  0  0  0
 12 11  1  0  0  0  0
 13 14  2  0  0  0  0
 15 20  1  0  0  0  0
 15 13  1  0  0  0  0
 16 48  1  0  0  0  0
 16 15  1  0  0  0  0
 17 18  1  0  0  0  0
 17 16  1  0  0  0  0
 18 19  1  0  0  0  0
 19 52  1  0  0  0  0
 19 20  1  0  0  0  0
 20 54  1  0  0  0  0
 21 23  2  0  0  0  0
 21 24  1  0  0  0  0
 21 18  1  0  0  0  0
 22 21  2  0  0  0  0
 24 25  2  0  0  0  0
 25 26  1  0  0  0  0
 25 56  1  0  0  0  0
 26 33  2  0  0  0  0
 27 30  2  0  0  0  0
 27 26  1  0  0  0  0
 28 27  1  0  0  0  0
 29 28  2  0  0  0  0
 29 24  1  0  0  0  0
 30 31  1  0  0  0  0
 31 34  1  0  0  0  0
 31 32  2  0  0  0  0
 32 60  1  0  0  0  0
 33 32  1  0  0  0  0
 33 61  1  0  0  0  0
 35  2  1  0  0  0  0
 36  3  1  0  0  0  0
 40  8  1  0  0  0  0
 41  9  1  0  0  0  0
 42  9  1  0  0  0  0
 46 12  1  0  0  0  0
 49 16  1  0  0  0  0
 50 17  1  0  0  0  0
 51 17  1  0  0  0  0
 53 19  1  0  0  0  0
 55 20  1  0  0  0  0
 57 28  1  0  0  0  0
 58 29  1  0  0  0  0
 59 30  1  0  0  0  0
M  END
