omegacsd_FIBREN_01.xyz
 OpenBabel12161914463D

 39 41  0  0  1  0  0  0  0  0999 V2000
   -3.7340   -0.8138   -1.4732 N   0  0  0  0  0  0  0  0  0  0  0  0
   -2.5578   -0.8536   -2.1087 C   0  0  0  0  0  0  0  0  0  0  0  0
   -1.3479   -0.5425   -1.6063 N   0  0  0  0  0  0  0  0  0  0  0  0
   -1.2694   -0.1526   -0.3295 C   0  0  0  0  0  0  0  0  0  0  0  0
   -2.4440   -0.0881    0.4362 C   0  0  2  0  0  0  0  0  0  0  0  0
   -3.6066   -0.4240   -0.2155 C   0  0  0  0  0  0  0  0  0  0  0  0
   -4.6231   -0.2843    0.6799 O   0  0  0  0  0  0  0  0  0  0  0  0
   -4.0005    0.1307    1.8368 C   0  0  0  0  0  0  0  0  0  0  0  0
   -2.7195    0.2625    1.7581 N   0  0  0  0  0  0  0  0  0  0  0  0
   -4.8906    0.3710    3.0020 C   0  0  0  0  0  0  0  0  0  0  0  0
   -0.0836    0.1943    0.2293 N   0  0  0  0  0  0  0  0  0  0  0  0
    1.2102   -0.0253   -0.4082 C   0  0  1  0  0  0  0  0  0  0  0  0
    1.4660    1.0510   -1.4747 C   0  0  0  0  0  0  0  0  0  0  0  0
    2.6204    0.7117   -2.3830 C   0  0  0  0  0  0  0  0  0  0  0  0
    3.0723   -0.3943   -2.5756 O   0  0  0  0  0  0  0  0  0  0  0  0
    3.0937    1.8006   -3.0181 O   0  0  0  0  0  0  0  0  0  0  0  0
    2.3012   -0.0551    0.6504 C   0  0  0  0  0  0  0  0  0  0  0  0
    2.4151    0.9864    1.5727 C   0  0  0  0  0  0  0  0  0  0  0  0
    3.4295    0.9839    2.5252 C   0  0  0  0  0  0  0  0  0  0  0  0
    4.3435   -0.0665    2.5685 C   0  0  0  0  0  0  0  0  0  0  0  0
    4.2433   -1.1048    1.6476 C   0  0  0  0  0  0  0  0  0  0  0  0
    3.2294   -1.0958    0.6931 C   0  0  0  0  0  0  0  0  0  0  0  0
   -2.5798   -1.2997   -3.5430 C   0  0  0  0  0  0  0  0  0  0  0  0
   -4.2946    0.6710    3.8648 H   0  0  0  0  0  0  0  0  0  0  0  0
   -5.4520   -0.5354    3.2491 H   0  0  0  0  0  0  0  0  0  0  0  0
   -5.6135    1.1613    2.7754 H   0  0  0  0  0  0  0  0  0  0  0  0
   -0.1132    0.3029    1.2368 H   0  0  0  0  0  0  0  0  0  0  0  0
    1.1950   -0.9891   -0.9304 H   0  0  0  0  0  0  0  0  0  0  0  0
    1.6180    2.0328   -1.0160 H   0  0  0  0  0  0  0  0  0  0  0  0
    0.5704    1.1176   -2.1036 H   0  0  0  0  0  0  0  0  0  0  0  0
    3.8086    1.4851   -3.5955 H   0  0  0  0  0  0  0  0  0  0  0  0
    1.7059    1.8140    1.5482 H   0  0  0  0  0  0  0  0  0  0  0  0
    3.4960    1.7963    3.2448 H   0  0  0  0  0  0  0  0  0  0  0  0
    5.1322   -0.0733    3.3166 H   0  0  0  0  0  0  0  0  0  0  0  0
    4.9545   -1.9271    1.6721 H   0  0  0  0  0  0  0  0  0  0  0  0
    3.1637   -1.9037   -0.0345 H   0  0  0  0  0  0  0  0  0  0  0  0
   -2.1023   -2.2806   -3.6382 H   0  0  0  0  0  0  0  0  0  0  0  0
   -3.6128   -1.3708   -3.8878 H   0  0  0  0  0  0  0  0  0  0  0  0
   -2.0235   -0.5927   -4.1653 H   0  0  0  0  0  0  0  0  0  0  0  0
  1  6  2  0  0  0  0
  2  3  1  0  0  0  0
  2  1  2  0  0  0  0
  3  4  2  0  0  0  0
  4 11  1  0  0  0  0
  5  4  1  6  0  0  0
  5  9  1  0  0  0  0
  6  5  1  0  0  0  0
  6  7  1  0  0  0  0
  7  8  1  0  0  0  0
  8 10  1  0  0  0  0
  9  8  2  0  0  0  0
 10 25  1  0  0  0  0
 10 24  1  0  0  0  0
 11 27  1  0  0  0  0
 12 28  1  6  0  0  0
 12 11  1  0  0  0  0
 12 17  1  0  0  0  0
 13 29  1  0  0  0  0
 13 12  1  0  0  0  0
 14 13  1  0  0  0  0
 15 14  2  0  0  0  0
 16 14  1  0  0  0  0
 17 22  2  0  0  0  0
 17 18  1  0  0  0  0
 18 19  2  0  0  0  0
 19 20  1  0  0  0  0
 19 33  1  0  0  0  0
 20 34  1  0  0  0  0
 21 35  1  0  0  0  0
 21 20  2  0  0  0  0
 22 21  1  0  0  0  0
 23  2  1  0  0  0  0
 26 10  1  0  0  0  0
 30 13  1  0  0  0  0
 31 16  1  0  0  0  0
 32 18  1  0  0  0  0
 36 22  1  0  0  0  0
 37 23  1  0  0  0  0
 38 23  1  0  0  0  0
 39 23  1  0  0  0  0
M  RAD  1   5   2
M  END
