omegapdb_1xom_17.xyz
 OpenBabel12161914463D

 50 52  0  0  1  0  0  0  0  0999 V2000
    7.1140    0.3588    0.6370 O   0  0  0  0  0  0  0  0  0  0  0  0
    6.2289    0.8186   -0.2834 C   0  0  0  0  0  0  0  0  0  0  0  0
    6.5445    1.7216   -1.0108 O   0  0  0  0  0  0  0  0  0  0  0  0
    4.8593    0.1507   -0.2838 C   0  0  1  0  0  0  0  0  0  0  0  0
    4.0607    0.5914    0.9556 C   0  0  0  0  0  0  0  0  0  0  0  0
    2.6816   -0.0684    0.9856 C   0  0  0  0  0  0  0  0  0  0  0  0
    1.8740    0.2152   -0.3107 C   0  0  2  0  0  0  0  0  0  0  0  0
    2.7087   -0.1870   -1.5567 C   0  0  0  0  0  0  0  0  0  0  0  0
    4.0907    0.4665   -1.5685 C   0  0  0  0  0  0  0  0  0  0  0  0
    1.6466    1.6807   -0.3696 C   0  0  0  0  0  0  0  0  0  0  0  0
    1.4848    2.8265   -0.4029 N   0  0  0  0  0  0  0  0  0  0  0  0
    0.5315   -0.5332   -0.2965 C   0  0  0  0  0  0  0  0  0  0  0  0
    0.5171   -1.9171   -0.1720 C   0  0  0  0  0  0  0  0  0  0  0  0
   -0.6821   -2.6276   -0.1403 C   0  0  0  0  0  0  0  0  0  0  0  0
   -1.8972   -1.9579   -0.2335 C   0  0  0  0  0  0  0  0  0  0  0  0
   -3.1188   -2.5495   -0.1978 O   0  0  0  0  0  0  0  0  0  0  0  0
   -3.1620   -3.9540   -0.0724 C   0  0  0  0  0  0  0  0  0  0  0  0
   -1.8930   -0.5568   -0.3718 C   0  0  0  0  0  0  0  0  0  0  0  0
   -0.6904    0.1343   -0.4107 C   0  0  0  0  0  0  0  0  0  0  0  0
   -3.0728    0.1214   -0.5252 O   0  0  0  0  0  0  0  0  0  0  0  0
   -3.8264    0.3189    0.6796 C   0  0  0  0  0  0  0  0  0  0  0  0
   -5.1868    0.8448    0.2462 C   0  0  0  0  0  0  0  0  0  0  0  0
   -4.9178    2.3220   -0.1059 C   0  0  0  0  0  0  0  0  0  0  0  0
   -3.6428    2.7247    0.6827 C   0  0  0  0  0  0  0  0  0  0  0  0
   -3.2286    1.4709    1.4802 C   0  0  0  0  0  0  0  0  0  0  0  0
    6.7355   -0.3825    1.1297 H   0  0  0  0  0  0  0  0  0  0  0  0
    5.0145   -0.9390   -0.2228 H   0  0  0  0  0  0  0  0  0  0  0  0
    4.6142    0.3376    1.8683 H   0  0  0  0  0  0  0  0  0  0  0  0
    3.9516    1.6828    0.9440 H   0  0  0  0  0  0  0  0  0  0  0  0
    2.7957   -1.1532    1.0966 H   0  0  0  0  0  0  0  0  0  0  0  0
    2.1006    0.2771    1.8463 H   0  0  0  0  0  0  0  0  0  0  0  0
    2.8174   -1.2788   -1.5539 H   0  0  0  0  0  0  0  0  0  0  0  0
    2.1462    0.0698   -2.4600 H   0  0  0  0  0  0  0  0  0  0  0  0
    4.0010    1.5532   -1.6722 H   0  0  0  0  0  0  0  0  0  0  0  0
    4.6614    0.1207   -2.4363 H   0  0  0  0  0  0  0  0  0  0  0  0
    1.4476   -2.4790   -0.0966 H   0  0  0  0  0  0  0  0  0  0  0  0
   -0.6582   -3.7061   -0.0358 H   0  0  0  0  0  0  0  0  0  0  0  0
   -2.7012   -4.2850    0.8676 H   0  0  0  0  0  0  0  0  0  0  0  0
   -4.2183   -4.2234   -0.0722 H   0  0  0  0  0  0  0  0  0  0  0  0
   -2.6602   -4.4464   -0.9158 H   0  0  0  0  0  0  0  0  0  0  0  0
   -0.7101    1.2135   -0.5289 H   0  0  0  0  0  0  0  0  0  0  0  0
   -3.8813   -0.6207    1.2395 H   0  0  0  0  0  0  0  0  0  0  0  0
   -5.5840    0.2605   -0.5885 H   0  0  0  0  0  0  0  0  0  0  0  0
   -5.8939    0.7630    1.0822 H   0  0  0  0  0  0  0  0  0  0  0  0
   -5.7766    2.9522    0.1467 H   0  0  0  0  0  0  0  0  0  0  0  0
   -4.7465    2.4325   -1.1794 H   0  0  0  0  0  0  0  0  0  0  0  0
   -2.8466    3.0075   -0.0137 H   0  0  0  0  0  0  0  0  0  0  0  0
   -3.8113    3.5825    1.3414 H   0  0  0  0  0  0  0  0  0  0  0  0
   -3.6769    1.4746    2.4816 H   0  0  0  0  0  0  0  0  0  0  0  0
   -2.1444    1.3712    1.6041 H   0  0  0  0  0  0  0  0  0  0  0  0
  1 26  1  0  0  0  0
  2  1  1  0  0  0  0
  3  2  2  0  0  0  0
  4  2  1  0  0  0  0
  4 27  1  1  0  0  0
  4  5  1  0  0  0  0
  5  6  1  0  0  0  0
  5 28  1  0  0  0  0
  6 30  1  0  0  0  0
  6 31  1  0  0  0  0
  7 10  1  6  0  0  0
  7 12  1  0  0  0  0
  7  6  1  0  0  0  0
  8 32  1  0  0  0  0
  8  7  1  0  0  0  0
  9  8  1  0  0  0  0
  9  4  1  0  0  0  0
 11 10  3  0  0  0  0
 12 13  2  0  0  0  0
 13 14  1  0  0  0  0
 13 36  1  0  0  0  0
 14 37  1  0  0  0  0
 15 16  1  0  0  0  0
 15 14  2  0  0  0  0
 16 17  1  0  0  0  0
 17 39  1  0  0  0  0
 17 38  1  0  0  0  0
 18 15  1  0  0  0  0
 19 18  2  0  0  0  0
 19 12  1  0  0  0  0
 20 18  1  0  0  0  0
 20 21  1  0  0  0  0
 21 42  1  0  0  0  0
 21 25  1  0  0  0  0
 22 21  1  0  0  0  0
 22 44  1  0  0  0  0
 23 45  1  0  0  0  0
 23 22  1  0  0  0  0
 23 24  1  0  0  0  0
 24 48  1  0  0  0  0
 24 25  1  0  0  0  0
 25 50  1  0  0  0  0
 25 49  1  0  0  0  0
 29  5  1  0  0  0  0
 33  8  1  0  0  0  0
 34  9  1  0  0  0  0
 35  9  1  0  0  0  0
 40 17  1  0  0  0  0
 41 19  1  0  0  0  0
 43 22  1  0  0  0  0
 46 23  1  0  0  0  0
 47 24  1  0  0  0  0
M  END
