omegapdb_1qxw_31.xyz
 OpenBabel12161914463D

 36 36  0  0  1  0  0  0  0  0999 V2000
    3.5968    1.8761   -0.6877 C   0  0  0  0  0  0  0  0  0  0  0  0
    3.6343    0.5680   -1.4384 C   0  0  0  0  0  0  0  0  0  0  0  0
    2.4677    0.9067   -0.5484 C   0  0  0  0  0  0  0  0  0  0  0  0
    2.2448    0.2256    0.7067 N   0  0  0  0  0  0  0  0  0  0  0  0
    1.7833   -1.1570    0.5572 C   0  0  0  0  0  0  0  0  0  0  0  0
    0.5537   -1.4132    1.4363 C   0  0  0  0  0  0  0  0  0  0  0  0
   -0.7386   -0.6676    0.9866 C   0  0  1  0  0  0  0  0  0  0  0  0
   -0.7537    0.7481    1.3268 N   0  0  0  0  0  0  0  0  0  0  0  0
   -1.0605   -0.8927   -0.4938 C   0  0  0  0  0  0  0  0  0  0  0  0
   -2.5180   -0.6278   -0.8956 C   0  0  0  0  0  0  0  0  0  0  0  0
   -2.9441    0.8406   -0.9133 C   0  0  0  0  0  0  0  0  0  0  0  0
   -4.3595    1.0164   -1.4560 C   0  0  0  0  0  0  0  0  0  0  0  0
    0.8510   -1.0586    2.7740 O   0  0  0  0  0  0  0  0  0  0  0  0
    0.3131   -2.7968    1.4018 O   0  0  0  0  0  0  0  0  0  0  0  0
    4.2681    1.9993    0.1594 H   0  0  0  0  0  0  0  0  0  0  0  0
    3.4302    2.7911   -1.2490 H   0  0  0  0  0  0  0  0  0  0  0  0
    4.3281   -0.1945   -1.0903 H   0  0  0  0  0  0  0  0  0  0  0  0
    3.4835    0.5848   -2.5140 H   0  0  0  0  0  0  0  0  0  0  0  0
    1.5371    1.1672   -1.0539 H   0  0  0  0  0  0  0  0  0  0  0  0
    3.1025    0.2529    1.2504 H   0  0  0  0  0  0  0  0  0  0  0  0
    1.5673   -1.3883   -0.4893 H   0  0  0  0  0  0  0  0  0  0  0  0
    2.5421   -1.8698    0.9004 H   0  0  0  0  0  0  0  0  0  0  0  0
   -1.5222   -1.1550    1.5851 H   0  0  0  0  0  0  0  0  0  0  0  0
    0.1258    1.1796    1.0534 H   0  0  0  0  0  0  0  0  0  0  0  0
   -0.8483    0.8678    2.3308 H   0  0  0  0  0  0  0  0  0  0  0  0
   -0.4000   -0.2562   -1.1044 H   0  0  0  0  0  0  0  0  0  0  0  0
   -0.8170   -1.9328   -0.7465 H   0  0  0  0  0  0  0  0  0  0  0  0
   -3.1914   -1.1971   -0.2368 H   0  0  0  0  0  0  0  0  0  0  0  0
   -2.6684   -1.0416   -1.9026 H   0  0  0  0  0  0  0  0  0  0  0  0
   -2.2382    1.4045   -1.5386 H   0  0  0  0  0  0  0  0  0  0  0  0
   -2.8682    1.2632    0.0923 H   0  0  0  0  0  0  0  0  0  0  0  0
   -4.4389    0.6360   -2.4817 H   0  0  0  0  0  0  0  0  0  0  0  0
   -4.6564    2.0703   -1.4669 H   0  0  0  0  0  0  0  0  0  0  0  0
   -5.0867    0.4702   -0.8436 H   0  0  0  0  0  0  0  0  0  0  0  0
    1.2803   -0.1888    2.7114 H   0  0  0  0  0  0  0  0  0  0  0  0
    0.0003   -3.0304    2.2851 H   0  0  0  0  0  0  0  0  0  0  0  0
  1  3  1  0  0  0  0
  1 15  1  0  0  0  0
  2 17  1  0  0  0  0
  2  1  1  0  0  0  0
  2  3  1  0  0  0  0
  3  4  1  0  0  0  0
  4 20  1  0  0  0  0
  5  4  1  0  0  0  0
  5 22  1  0  0  0  0
  5  6  1  0  0  0  0
  6 13  1  0  0  0  0
  7  8  1  0  0  0  0
  7  6  1  0  0  0  0
  7 23  1  1  0  0  0
  8 25  1  0  0  0  0
  9  7  1  0  0  0  0
 10  9  1  0  0  0  0
 10 28  1  0  0  0  0
 11 10  1  0  0  0  0
 11 31  1  0  0  0  0
 12 11  1  0  0  0  0
 12 34  1  0  0  0  0
 14  6  1  0  0  0  0
 14 36  1  0  0  0  0
 16  1  1  0  0  0  0
 18  2  1  0  0  0  0
 19  3  1  0  0  0  0
 21  5  1  0  0  0  0
 24  8  1  0  0  0  0
 26  9  1  0  0  0  0
 27  9  1  0  0  0  0
 29 10  1  0  0  0  0
 30 11  1  0  0  0  0
 32 12  1  0  0  0  0
 33 12  1  0  0  0  0
 35 13  1  0  0  0  0
M  END
