omegacsd_GALSEM_12.xyz
 OpenBabel12161914463D

 39 40  0  0  0  0  0  0  0  0999 V2000
    1.4574    1.0733    0.6436 S   0  0  0  0  0  0  0  0  0  0  0  0
    0.1844    1.4879    1.2321 O   0  0  0  0  0  0  0  0  0  0  0  0
    2.1964    1.9913   -0.2011 O   0  0  0  0  0  0  0  0  0  0  0  0
    2.3844    0.6278    1.9689 N   0  0  0  0  0  0  0  0  0  0  0  0
    3.7769    0.6256    2.0235 C   0  0  0  0  0  0  0  0  0  0  0  0
    4.4847    0.4148    1.0629 O   0  0  0  0  0  0  0  0  0  0  0  0
    4.3145    0.9038    3.4122 C   0  0  0  0  0  0  0  0  0  0  0  0
    5.8366    0.8793    3.4423 C   0  0  0  0  0  0  0  0  0  0  0  0
    1.2109   -0.4554   -0.2334 C   0  0  0  0  0  0  0  0  0  0  0  0
   -0.0336   -0.7908   -0.8191 C   0  0  0  0  0  0  0  0  0  0  0  0
   -1.1535   -0.0370   -0.5772 N   0  0  0  0  0  0  0  0  0  0  0  0
   -2.4675   -0.2778   -0.9887 C   0  0  0  0  0  0  0  0  0  0  0  0
   -3.2181    0.8227   -1.4087 C   0  0  0  0  0  0  0  0  0  0  0  0
   -4.5332    0.6521   -1.8163 C   0  0  0  0  0  0  0  0  0  0  0  0
   -5.1322   -0.6054   -1.7792 C   0  0  0  0  0  0  0  0  0  0  0  0
   -4.3954   -1.6913   -1.3220 C   0  0  0  0  0  0  0  0  0  0  0  0
   -3.0696   -1.5374   -0.9279 C   0  0  0  0  0  0  0  0  0  0  0  0
   -5.3374    1.8331   -2.2807 C   0  0  0  0  0  0  0  0  0  0  0  0
   -4.5982    2.9524   -2.3662 F   0  0  0  0  0  0  0  0  0  0  0  0
   -5.8784    1.6118   -3.4946 F   0  0  0  0  0  0  0  0  0  0  0  0
   -6.3613    2.0923   -1.4440 F   0  0  0  0  0  0  0  0  0  0  0  0
   -0.0310   -1.8916   -1.6842 C   0  0  0  0  0  0  0  0  0  0  0  0
    1.1360   -2.6220   -1.8522 C   0  0  0  0  0  0  0  0  0  0  0  0
    2.2991   -2.3403   -1.2613 N   0  0  0  0  0  0  0  0  0  0  0  0
    2.3191   -1.2655   -0.4765 C   0  0  0  0  0  0  0  0  0  0  0  0
    1.8764    0.7420    2.8393 H   0  0  0  0  0  0  0  0  0  0  0  0
    3.9385    1.8839    3.7401 H   0  0  0  0  0  0  0  0  0  0  0  0
    3.8977    0.1584    4.1027 H   0  0  0  0  0  0  0  0  0  0  0  0
    6.2444    1.6149    2.7437 H   0  0  0  0  0  0  0  0  0  0  0  0
    6.2136   -0.1014    3.1393 H   0  0  0  0  0  0  0  0  0  0  0  0
    6.2088    1.1033    4.4467 H   0  0  0  0  0  0  0  0  0  0  0  0
   -0.9858    0.8004   -0.0205 H   0  0  0  0  0  0  0  0  0  0  0  0
   -2.7627    1.8108   -1.4215 H   0  0  0  0  0  0  0  0  0  0  0  0
   -6.1624   -0.7217   -2.0982 H   0  0  0  0  0  0  0  0  0  0  0  0
   -4.8508   -2.6752   -1.2793 H   0  0  0  0  0  0  0  0  0  0  0  0
   -2.5037   -2.3889   -0.5605 H   0  0  0  0  0  0  0  0  0  0  0  0
   -0.9187   -2.1672   -2.2441 H   0  0  0  0  0  0  0  0  0  0  0  0
    1.1341   -3.4913   -2.5066 H   0  0  0  0  0  0  0  0  0  0  0  0
    3.2799   -1.0217   -0.0242 H   0  0  0  0  0  0  0  0  0  0  0  0
  1  2  2  0  0  0  0
  1  4  1  0  0  0  0
  3  1  2  0  0  0  0
  4  5  1  0  0  0  0
  4 26  1  0  0  0  0
  5  7  1  0  0  0  0
  6  5  2  0  0  0  0
  7  8  1  0  0  0  0
  7 27  1  0  0  0  0
  7 28  1  0  0  0  0
  8 31  1  0  0  0  0
  9  1  1  0  0  0  0
 10 11  1  0  0  0  0
 10  9  2  0  0  0  0
 11 32  1  0  0  0  0
 12 17  1  0  0  0  0
 12 11  1  0  0  0  0
 13 12  2  0  0  0  0
 14 15  2  0  0  0  0
 14 13  1  0  0  0  0
 15 16  1  0  0  0  0
 16 35  1  0  0  0  0
 16 17  2  0  0  0  0
 17 36  1  0  0  0  0
 18 14  1  0  0  0  0
 18 21  1  0  0  0  0
 19 18  1  0  0  0  0
 20 18  1  0  0  0  0
 22 10  1  0  0  0  0
 23 22  2  0  0  0  0
 23 24  1  0  0  0  0
 24 25  2  0  0  0  0
 25  9  1  0  0  0  0
 25 39  1  0  0  0  0
 29  8  1  0  0  0  0
 30  8  1  0  0  0  0
 33 13  1  0  0  0  0
 34 15  1  0  0  0  0
 37 22  1  0  0  0  0
 38 23  1  0  0  0  0
M  END
