omegacsd_SPIRIL_02.xyz
 OpenBabel12161914463D

 57 60  0  0  1  0  0  0  0  0999 V2000
   -2.0862   -1.3893    0.4236 C   0  0  0  0  0  0  0  0  0  0  0  0
   -2.9866   -1.1062   -0.7971 C   0  0  1  0  0  0  0  0  0  0  0  0
   -3.0164   -2.3630   -1.6906 C   0  0  0  0  0  0  0  0  0  0  0  0
   -2.0743   -2.8762   -2.2628 O   0  0  0  0  0  0  0  0  0  0  0  0
   -4.3001   -2.8157   -1.7218 N   0  0  0  0  0  0  0  0  0  0  0  0
   -5.2526   -1.9112   -1.1284 C   0  0  0  0  0  0  0  0  0  0  0  0
   -4.4034   -0.9645   -0.4234 N   0  0  0  0  0  0  0  0  0  0  0  0
   -4.9861    0.1059    0.2518 C   0  0  0  0  0  0  0  0  0  0  0  0
   -4.2383    1.0971    0.9124 C   0  0  0  0  0  0  0  0  0  0  0  0
   -4.8655    2.1278    1.6023 C   0  0  0  0  0  0  0  0  0  0  0  0
   -6.2513    2.2221    1.6531 C   0  0  0  0  0  0  0  0  0  0  0  0
   -7.0050    1.2537    1.0022 C   0  0  0  0  0  0  0  0  0  0  0  0
   -6.3898    0.2126    0.3180 C   0  0  0  0  0  0  0  0  0  0  0  0
   -2.4519    0.0814   -1.6277 C   0  0  0  0  0  0  0  0  0  0  0  0
   -0.9488   -0.0180   -1.8719 C   0  0  0  0  0  0  0  0  0  0  0  0
   -0.2241   -0.1498   -0.6093 N   0  0  0  0  0  0  0  0  0  0  0  0
    1.2136   -0.0494   -0.8217 C   0  0  0  0  0  0  0  0  0  0  0  0
    1.9868    0.2441    0.4636 C   0  0  0  0  0  0  0  0  0  0  0  0
    3.4286    0.5714    0.1796 C   0  0  0  0  0  0  0  0  0  0  0  0
    4.4767    0.3564    0.9838 C   0  0  0  0  0  0  0  0  0  0  0  0
    5.8576    0.6892    0.5238 C   0  0  0  0  0  0  0  0  0  0  0  0
    6.8163    1.1790    1.4163 C   0  0  0  0  0  0  0  0  0  0  0  0
    8.0974    1.5116    0.9942 C   0  0  0  0  0  0  0  0  0  0  0  0
    8.4242    1.3300   -0.3400 C   0  0  0  0  0  0  0  0  0  0  0  0
    7.5102    0.8309   -1.2560 C   0  0  0  0  0  0  0  0  0  0  0  0
    6.2297    0.5215   -0.8180 C   0  0  0  0  0  0  0  0  0  0  0  0
    9.6630    1.6411   -0.7573 F   0  0  0  0  0  0  0  0  0  0  0  0
    4.3336   -0.2013    2.3783 C   0  0  0  0  0  0  0  0  0  0  0  0
   -0.6022   -1.3966    0.0570 C   0  0  0  0  0  0  0  0  0  0  0  0
   -2.3716   -2.3519    0.8618 H   0  0  0  0  0  0  0  0  0  0  0  0
   -2.2616   -0.6305    1.1901 H   0  0  0  0  0  0  0  0  0  0  0  0
   -4.5571   -3.5070   -2.4063 H   0  0  0  0  0  0  0  0  0  0  0  0
   -5.8621   -1.3954   -1.8891 H   0  0  0  0  0  0  0  0  0  0  0  0
   -5.9146   -2.4352   -0.4266 H   0  0  0  0  0  0  0  0  0  0  0  0
   -3.1557    1.0865    0.8879 H   0  0  0  0  0  0  0  0  0  0  0  0
   -4.2542    2.8741    2.1023 H   0  0  0  0  0  0  0  0  0  0  0  0
   -6.7337    3.0345    2.1881 H   0  0  0  0  0  0  0  0  0  0  0  0
   -8.0922    1.3039    1.0212 H   0  0  0  0  0  0  0  0  0  0  0  0
   -7.0162   -0.5224   -0.1734 H   0  0  0  0  0  0  0  0  0  0  0  0
   -2.6552    1.0183   -1.1045 H   0  0  0  0  0  0  0  0  0  0  0  0
   -2.9921    0.1231   -2.5791 H   0  0  0  0  0  0  0  0  0  0  0  0
   -0.7277   -0.8562   -2.5536 H   0  0  0  0  0  0  0  0  0  0  0  0
   -0.6130    0.9047   -2.3605 H   0  0  0  0  0  0  0  0  0  0  0  0
    1.3908    0.7827   -1.5130 H   0  0  0  0  0  0  0  0  0  0  0  0
    1.6204   -0.9604   -1.3062 H   0  0  0  0  0  0  0  0  0  0  0  0
    1.9111   -0.6062    1.1510 H   0  0  0  0  0  0  0  0  0  0  0  0
    1.4931    1.0924    0.9577 H   0  0  0  0  0  0  0  0  0  0  0  0
    3.6036    1.0945   -0.7634 H   0  0  0  0  0  0  0  0  0  0  0  0
    6.5551    1.3135    2.4628 H   0  0  0  0  0  0  0  0  0  0  0  0
    8.8417    1.8982    1.6832 H   0  0  0  0  0  0  0  0  0  0  0  0
    7.8049    0.6998   -2.2929 H   0  0  0  0  0  0  0  0  0  0  0  0
    5.5104    0.1174   -1.5261 H   0  0  0  0  0  0  0  0  0  0  0  0
    3.3728   -0.7003    2.5284 H   0  0  0  0  0  0  0  0  0  0  0  0
    5.1266   -0.9286    2.5763 H   0  0  0  0  0  0  0  0  0  0  0  0
    4.4143    0.5884    3.1364 H   0  0  0  0  0  0  0  0  0  0  0  0
   -0.0137   -1.5013    0.9744 H   0  0  0  0  0  0  0  0  0  0  0  0
   -0.3798   -2.2712   -0.5784 H   0  0  0  0  0  0  0  0  0  0  0  0
  1 30  1  0  0  0  0
  1 31  1  0  0  0  0
  2  3  1  6  0  0  0
  2  7  1  0  0  0  0
  2  1  1  0  0  0  0
  4  3  2  0  0  0  0
  5  3  1  0  0  0  0
  5  6  1  0  0  0  0
  6 34  1  0  0  0  0
  6  7  1  0  0  0  0
  7  8  1  0  0  0  0
  8 13  2  0  0  0  0
  8  9  1  0  0  0  0
  9 10  2  0  0  0  0
 10 11  1  0  0  0  0
 10 36  1  0  0  0  0
 11 37  1  0  0  0  0
 12 38  1  0  0  0  0
 12 11  2  0  0  0  0
 13 12  1  0  0  0  0
 14 40  1  0  0  0  0
 14  2  1  0  0  0  0
 15 14  1  0  0  0  0
 15 16  1  0  0  0  0
 16 29  1  0  0  0  0
 17 16  1  0  0  0  0
 17 18  1  0  0  0  0
 18 47  1  0  0  0  0
 18 46  1  0  0  0  0
 19 18  1  0  0  0  0
 19 20  2  0  0  0  0
 20 28  1  0  0  0  0
 21 20  1  0  0  0  0
 21 22  2  0  0  0  0
 22 49  1  0  0  0  0
 23 22  1  0  0  0  0
 23 50  1  0  0  0  0
 24 23  2  0  0  0  0
 25 26  2  0  0  0  0
 25 24  1  0  0  0  0
 26 21  1  0  0  0  0
 27 24  1  0  0  0  0
 28 53  1  0  0  0  0
 28 54  1  0  0  0  0
 28 55  1  0  0  0  0
 29  1  1  0  0  0  0
 29 56  1  0  0  0  0
 32  5  1  0  0  0  0
 33  6  1  0  0  0  0
 35  9  1  0  0  0  0
 39 13  1  0  0  0  0
 41 14  1  0  0  0  0
 42 15  1  0  0  0  0
 43 15  1  0  0  0  0
 44 17  1  0  0  0  0
 45 17  1  0  0  0  0
 48 19  1  0  0  0  0
 51 25  1  0  0  0  0
 52 26  1  0  0  0  0
 57 29  1  0  0  0  0
M  END
