omegapdb_1qxw_08.xyz
 OpenBabel12161914463D

 36 36  0  0  1  0  0  0  0  0999 V2000
    4.2086    1.4093    0.6336 C   0  0  0  0  0  0  0  0  0  0  0  0
    4.3250    1.3654   -0.8683 C   0  0  0  0  0  0  0  0  0  0  0  0
    2.9733    1.3772   -0.2285 C   0  0  0  0  0  0  0  0  0  0  0  0
    2.1303    0.2221   -0.2986 N   0  0  0  0  0  0  0  0  0  0  0  0
    1.3664   -0.0125    0.9119 C   0  0  0  0  0  0  0  0  0  0  0  0
    0.6002   -1.3272    0.8013 C   0  0  0  0  0  0  0  0  0  0  0  0
   -0.5355   -1.2910   -0.2433 C   0  0  1  0  0  0  0  0  0  0  0  0
   -0.9022   -2.6964   -0.4454 N   0  0  0  0  0  0  0  0  0  0  0  0
   -1.7026   -0.3774    0.1448 C   0  0  0  0  0  0  0  0  0  0  0  0
   -2.7818   -0.3179   -0.9384 C   0  0  0  0  0  0  0  0  0  0  0  0
   -3.9377    0.6354   -0.6181 C   0  0  0  0  0  0  0  0  0  0  0  0
   -3.5345    2.1087   -0.6092 C   0  0  0  0  0  0  0  0  0  0  0  0
    1.5279   -2.3256    0.4363 O   0  0  0  0  0  0  0  0  0  0  0  0
    0.0248   -1.6487    2.0569 O   0  0  0  0  0  0  0  0  0  0  0  0
    4.4538    2.3354    1.1445 H   0  0  0  0  0  0  0  0  0  0  0  0
    4.4615    0.5067    1.1871 H   0  0  0  0  0  0  0  0  0  0  0  0
    4.6620    2.2583   -1.3879 H   0  0  0  0  0  0  0  0  0  0  0  0
    4.6606    0.4358   -1.3213 H   0  0  0  0  0  0  0  0  0  0  0  0
    2.4166    2.3112   -0.3015 H   0  0  0  0  0  0  0  0  0  0  0  0
    2.6650   -0.6149   -0.5147 H   0  0  0  0  0  0  0  0  0  0  0  0
    1.9986   -0.0874    1.8113 H   0  0  0  0  0  0  0  0  0  0  0  0
    0.6712    0.8164    1.0828 H   0  0  0  0  0  0  0  0  0  0  0  0
   -0.0980   -0.9272   -1.1824 H   0  0  0  0  0  0  0  0  0  0  0  0
   -1.4729   -3.0059    0.3386 H   0  0  0  0  0  0  0  0  0  0  0  0
   -1.4474   -2.8193   -1.2923 H   0  0  0  0  0  0  0  0  0  0  0  0
   -1.3174    0.6332    0.3280 H   0  0  0  0  0  0  0  0  0  0  0  0
   -2.1439   -0.7199    1.0892 H   0  0  0  0  0  0  0  0  0  0  0  0
   -3.1914   -1.3235   -1.0984 H   0  0  0  0  0  0  0  0  0  0  0  0
   -2.3220   -0.0179   -1.8921 H   0  0  0  0  0  0  0  0  0  0  0  0
   -4.7346    0.4875   -1.3581 H   0  0  0  0  0  0  0  0  0  0  0  0
   -4.3728    0.3644    0.3540 H   0  0  0  0  0  0  0  0  0  0  0  0
   -4.3961    2.7528   -0.4052 H   0  0  0  0  0  0  0  0  0  0  0  0
   -3.1170    2.4036   -1.5793 H   0  0  0  0  0  0  0  0  0  0  0  0
   -2.7785    2.3194    0.1550 H   0  0  0  0  0  0  0  0  0  0  0  0
    0.9620   -3.0146    0.0274 H   0  0  0  0  0  0  0  0  0  0  0  0
    0.6785   -2.2156    2.4872 H   0  0  0  0  0  0  0  0  0  0  0  0
  1 15  1  0  0  0  0
  1 16  1  0  0  0  0
  2  3  1  0  0  0  0
  2  1  1  0  0  0  0
  3  1  1  0  0  0  0
  4  3  1  0  0  0  0
  4  5  1  0  0  0  0
  5 22  1  0  0  0  0
  5 21  1  0  0  0  0
  6  5  1  0  0  0  0
  6 14  1  0  0  0  0
  7 23  1  6  0  0  0
  7  9  1  0  0  0  0
  7  6  1  0  0  0  0
  8  7  1  0  0  0  0
  8 24  1  0  0  0  0
  9 26  1  0  0  0  0
  9 27  1  0  0  0  0
 10 11  1  0  0  0  0
 10  9  1  0  0  0  0
 11 12  1  0  0  0  0
 11 31  1  0  0  0  0
 12 32  1  0  0  0  0
 12 34  1  0  0  0  0
 13  6  1  0  0  0  0
 14 36  1  0  0  0  0
 17  2  1  0  0  0  0
 18  2  1  0  0  0  0
 19  3  1  0  0  0  0
 20  4  1  0  0  0  0
 25  8  1  0  0  0  0
 28 10  1  0  0  0  0
 29 10  1  0  0  0  0
 30 11  1  0  0  0  0
 33 12  1  0  0  0  0
 35 13  1  0  0  0  0
M  END
