omegapdb_1gs5_06.xyz
 OpenBabel12161914463D

 24 23  0  0  1  0  0  0  0  0999 V2000
   -0.4802   -1.1441   -0.4158 C   0  0  2  0  0  0  0  0  0  0  0  0
   -1.1488   -1.9813    0.6676 C   0  0  0  0  0  0  0  0  0  0  0  0
   -2.2296   -1.7430    1.1542 O   0  0  0  0  0  0  0  0  0  0  0  0
   -0.4235   -3.0586    1.0053 O   0  0  0  0  0  0  0  0  0  0  0  0
    1.0284   -0.9740   -0.1876 C   0  0  0  0  0  0  0  0  0  0  0  0
    1.3727   -0.1604    1.0669 C   0  0  0  0  0  0  0  0  0  0  0  0
    2.6847    0.6026    0.9351 C   0  0  0  0  0  0  0  0  0  0  0  0
    3.6143    0.4684    1.6886 O   0  0  0  0  0  0  0  0  0  0  0  0
    2.7430    1.4636   -0.0943 O   0  0  0  0  0  0  0  0  0  0  0  0
   -1.2330    0.0946   -0.4868 N   0  0  0  0  0  0  0  0  0  0  0  0
   -0.8542    1.2629   -1.0600 C   0  0  0  0  0  0  0  0  0  0  0  0
    0.2800    1.4781   -1.4870 O   0  0  0  0  0  0  0  0  0  0  0  0
   -1.9285    2.3270   -1.1018 C   0  0  0  0  0  0  0  0  0  0  0  0
   -0.6043   -1.7136   -1.3515 H   0  0  0  0  0  0  0  0  0  0  0  0
   -0.9444   -3.5361    1.6727 H   0  0  0  0  0  0  0  0  0  0  0  0
    1.4808   -1.9679   -0.1233 H   0  0  0  0  0  0  0  0  0  0  0  0
    1.4349   -0.4978   -1.0813 H   0  0  0  0  0  0  0  0  0  0  0  0
    1.4511   -0.8052    1.9456 H   0  0  0  0  0  0  0  0  0  0  0  0
    0.5808    0.5732    1.2682 H   0  0  0  0  0  0  0  0  0  0  0  0
    1.9009    1.4802   -0.5931 H   0  0  0  0  0  0  0  0  0  0  0  0
   -2.1677    0.0218   -0.1048 H   0  0  0  0  0  0  0  0  0  0  0  0
   -2.9153    1.9118   -1.3316 H   0  0  0  0  0  0  0  0  0  0  0  0
   -1.9864    2.8306   -0.1303 H   0  0  0  0  0  0  0  0  0  0  0  0
   -1.6556    3.0674   -1.8547 H   0  0  0  0  0  0  0  0  0  0  0  0
  1 14  1  6  0  0  0
  1  5  1  0  0  0  0
  1  2  1  0  0  0  0
  2  4  1  0  0  0  0
  2  3  2  0  0  0  0
  4 15  1  0  0  0  0
  5 16  1  0  0  0  0
  5  6  1  0  0  0  0
  6 19  1  0  0  0  0
  6 18  1  0  0  0  0
  7  6  1  0  0  0  0
  7  8  2  0  0  0  0
  9  7  1  0  0  0  0
 10  1  1  0  0  0  0
 10 21  1  0  0  0  0
 11 10  1  0  0  0  0
 12 11  2  0  0  0  0
 13 11  1  0  0  0  0
 13 23  1  0  0  0  0
 17  5  1  0  0  0  0
 20  9  1  0  0  0  0
 22 13  1  0  0  0  0
 24 13  1  0  0  0  0
M  END
