omegapdb_2byh_13.xyz
 OpenBabel12161914463D

 40 42  0  0  0  0  0  0  0  0999 V2000
    5.4912    3.3094    1.7579 O   0  0  0  0  0  0  0  0  0  0  0  0
    5.4437    2.1180    1.9978 C   0  0  0  0  0  0  0  0  0  0  0  0
    6.5362    1.4390    2.7970 C   0  0  0  0  0  0  0  0  0  0  0  0
    4.3004    1.2926    1.5045 C   0  0  0  0  0  0  0  0  0  0  0  0
    3.3052    1.9125    0.7454 C   0  0  0  0  0  0  0  0  0  0  0  0
    2.2229    1.2040    0.2494 C   0  0  0  0  0  0  0  0  0  0  0  0
    2.1201   -0.1653    0.5150 C   0  0  0  0  0  0  0  0  0  0  0  0
    3.1075   -0.7939    1.2832 C   0  0  0  0  0  0  0  0  0  0  0  0
    4.1861   -0.0725    1.7691 C   0  0  0  0  0  0  0  0  0  0  0  0
    1.0598   -0.9600    0.0448 N   0  0  0  0  0  0  0  0  0  0  0  0
   -0.0021   -0.6037   -0.7528 C   0  0  0  0  0  0  0  0  0  0  0  0
   -0.1385    0.5188   -1.2161 O   0  0  0  0  0  0  0  0  0  0  0  0
   -0.9534   -1.7235   -0.9934 C   0  0  0  0  0  0  0  0  0  0  0  0
   -0.6179   -3.0955   -1.1454 C   0  0  0  0  0  0  0  0  0  0  0  0
   -1.6834   -3.8584   -1.3071 N   0  0  0  0  0  0  0  0  0  0  0  0
   -2.7118   -3.0002   -1.2260 N   0  0  0  0  0  0  0  0  0  0  0  0
   -2.3477   -1.7011   -1.0740 C   0  0  0  0  0  0  0  0  0  0  0  0
   -3.3314   -0.6087   -1.0575 C   0  0  0  0  0  0  0  0  0  0  0  0
   -3.0897    0.5522   -1.7941 C   0  0  0  0  0  0  0  0  0  0  0  0
   -4.0340    1.5542   -1.9041 C   0  0  0  0  0  0  0  0  0  0  0  0
   -3.7038    2.9711   -2.8424 Cl  0  0  0  0  0  0  0  0  0  0  0  0
   -5.2694    1.4255   -1.2572 C   0  0  0  0  0  0  0  0  0  0  0  0
   -6.1669    2.4259   -1.3873 O   0  0  0  0  0  0  0  0  0  0  0  0
   -5.5245    0.2831   -0.5066 C   0  0  0  0  0  0  0  0  0  0  0  0
   -4.5687   -0.7154   -0.3951 C   0  0  0  0  0  0  0  0  0  0  0  0
   -4.9196   -1.8054    0.3451 O   0  0  0  0  0  0  0  0  0  0  0  0
    6.9958    0.6292    2.2193 H   0  0  0  0  0  0  0  0  0  0  0  0
    6.1287    0.9990    3.7143 H   0  0  0  0  0  0  0  0  0  0  0  0
    7.2939    2.1811    3.0538 H   0  0  0  0  0  0  0  0  0  0  0  0
    3.3963    2.9763    0.5447 H   0  0  0  0  0  0  0  0  0  0  0  0
    1.4622    1.6970   -0.3391 H   0  0  0  0  0  0  0  0  0  0  0  0
    3.0376   -1.8572    1.4989 H   0  0  0  0  0  0  0  0  0  0  0  0
    4.9422   -0.5836    2.3593 H   0  0  0  0  0  0  0  0  0  0  0  0
    1.0451   -1.9030    0.4025 H   0  0  0  0  0  0  0  0  0  0  0  0
    0.3641   -3.5495   -1.2011 H   0  0  0  0  0  0  0  0  0  0  0  0
   -3.6505   -3.3491   -1.3660 H   0  0  0  0  0  0  0  0  0  0  0  0
   -2.1309    0.6739   -2.2791 H   0  0  0  0  0  0  0  0  0  0  0  0
   -6.9725    2.1899   -0.9092 H   0  0  0  0  0  0  0  0  0  0  0  0
   -6.4736    0.1538    0.0106 H   0  0  0  0  0  0  0  0  0  0  0  0
   -4.1487   -2.1605    0.8068 H   0  0  0  0  0  0  0  0  0  0  0  0
  1  2  2  0  0  0  0
  2  3  1  0  0  0  0
  3 29  1  0  0  0  0
  3 28  1  0  0  0  0
  4  9  1  0  0  0  0
  4  2  1  0  0  0  0
  5  4  2  0  0  0  0
  6  7  2  0  0  0  0
  6  5  1  0  0  0  0
  7  8  1  0  0  0  0
  8 32  1  0  0  0  0
  8  9  2  0  0  0  0
  9 33  1  0  0  0  0
 10 34  1  0  0  0  0
 10  7  1  0  0  0  0
 11 10  1  0  0  0  0
 12 11  2  0  0  0  0
 13 11  1  0  0  0  0
 14 13  1  0  0  0  0
 15 16  1  0  0  0  0
 15 14  2  0  0  0  0
 16 17  1  0  0  0  0
 17 18  1  0  0  0  0
 17 13  2  0  0  0  0
 18 25  2  0  0  0  0
 19 18  1  0  0  0  0
 20 19  2  0  0  0  0
 20 22  1  0  0  0  0
 21 20  1  0  0  0  0
 22 24  2  0  0  0  0
 23 22  1  0  0  0  0
 23 38  1  0  0  0  0
 24 25  1  0  0  0  0
 24 39  1  0  0  0  0
 25 26  1  0  0  0  0
 26 40  1  0  0  0  0
 27  3  1  0  0  0  0
 30  5  1  0  0  0  0
 31  6  1  0  0  0  0
 35 14  1  0  0  0  0
 36 16  1  0  0  0  0
 37 19  1  0  0  0  0
M  END
