omegapdb_2f7p_19.xyz
 OpenBabel12161914463D

 34 35  0  0  1  0  0  0  0  0999 V2000
   -1.1851   -0.9415   -0.2987 C   0  0  1  0  0  0  0  0  0  0  0  0
    0.2446   -0.7627   -0.4256 N   0  0  0  0  0  0  0  0  0  0  0  0
    0.8340    0.4883    0.0346 C   0  0  0  0  0  0  0  0  0  0  0  0
    2.3459    0.4511   -0.0391 C   0  0  0  0  0  0  0  0  0  0  0  0
    3.0467   -0.7157    0.2700 C   0  0  0  0  0  0  0  0  0  0  0  0
    4.4376   -0.7282    0.2529 C   0  0  0  0  0  0  0  0  0  0  0  0
    5.1460    0.4248   -0.0761 C   0  0  0  0  0  0  0  0  0  0  0  0
    4.4544    1.5907   -0.3901 C   0  0  0  0  0  0  0  0  0  0  0  0
    3.0627    1.6002   -0.3692 C   0  0  0  0  0  0  0  0  0  0  0  0
   -1.7479   -0.9879    1.1330 C   0  0  1  0  0  0  0  0  0  0  0  0
   -1.4385    0.1345    1.9496 O   0  0  0  0  0  0  0  0  0  0  0  0
   -3.2611   -0.9893    0.8712 C   0  0  1  0  0  0  0  0  0  0  0  0
   -4.0290   -0.7108    2.0200 O   0  0  0  0  0  0  0  0  0  0  0  0
   -3.4202    0.1052   -0.2100 C   0  0  1  0  0  0  0  0  0  0  0  0
   -3.4344    1.3734    0.4455 O   0  0  0  0  0  0  0  0  0  0  0  0
   -2.1341    0.0406   -1.0577 C   0  0  2  0  0  0  0  0  0  0  0  0
   -2.5016   -0.4921   -2.7561 S   0  0  0  0  0  0  0  0  0  0  0  0
   -1.3967   -1.9438   -0.7003 H   0  0  0  0  0  0  0  0  0  0  0  0
    0.5012   -0.9436   -1.3925 H   0  0  0  0  0  0  0  0  0  0  0  0
    0.5128    0.6320    1.0707 H   0  0  0  0  0  0  0  0  0  0  0  0
    0.4688    1.3601   -0.5358 H   0  0  0  0  0  0  0  0  0  0  0  0
    2.4906   -1.6177    0.5158 H   0  0  0  0  0  0  0  0  0  0  0  0
    4.9725   -1.6433    0.4973 H   0  0  0  0  0  0  0  0  0  0  0  0
    6.2330    0.4134   -0.0887 H   0  0  0  0  0  0  0  0  0  0  0  0
    4.9987    2.4957   -0.6511 H   0  0  0  0  0  0  0  0  0  0  0  0
    2.5275    2.5162   -0.6130 H   0  0  0  0  0  0  0  0  0  0  0  0
   -1.3959   -1.8723    1.6720 H   0  0  0  0  0  0  0  0  0  0  0  0
   -1.8614    0.9093    1.5328 H   0  0  0  0  0  0  0  0  0  0  0  0
   -3.5867   -1.9535    0.4657 H   0  0  0  0  0  0  0  0  0  0  0  0
   -3.4001   -0.3580    2.6702 H   0  0  0  0  0  0  0  0  0  0  0  0
   -4.3300   -0.0255   -0.8075 H   0  0  0  0  0  0  0  0  0  0  0  0
   -4.1226    1.2948    1.1260 H   0  0  0  0  0  0  0  0  0  0  0  0
   -1.7280    1.0541   -1.0726 H   0  0  0  0  0  0  0  0  0  0  0  0
   -1.3038   -0.1988   -3.2879 H   0  0  0  0  0  0  0  0  0  0  0  0
  1 16  1  6  0  0  0
  2  1  1  0  0  0  0
  2  3  1  0  0  0  0
  3 20  1  0  0  0  0
  4  3  1  0  0  0  0
  4  5  2  0  0  0  0
  5 22  1  0  0  0  0
  6  5  1  0  0  0  0
  6 23  1  0  0  0  0
  7  6  2  0  0  0  0
  8  9  2  0  0  0  0
  8  7  1  0  0  0  0
  9  4  1  0  0  0  0
 10  1  1  6  0  0  0
 10 27  1  0  0  0  0
 10 11  1  0  0  0  0
 12 14  1  6  0  0  0
 12 10  1  0  0  0  0
 12 13  1  0  0  0  0
 13 30  1  0  0  0  0
 14 16  1  6  0  0  0
 14 15  1  0  0  0  0
 15 32  1  0  0  0  0
 16 33  1  6  0  0  0
 17 16  1  0  0  0  0
 18  1  1  0  0  0  0
 19  2  1  0  0  0  0
 21  3  1  0  0  0  0
 24  7  1  0  0  0  0
 25  8  1  0  0  0  0
 26  9  1  0  0  0  0
 28 11  1  0  0  0  0
 29 12  1  0  0  0  0
 31 14  1  0  0  0  0
 34 17  1  0  0  0  0
M  END
