omegapdb_1gs5_02.xyz
 OpenBabel12161914463D

 24 23  0  0  1  0  0  0  0  0999 V2000
   -0.2844   -0.9322   -0.5565 C   0  0  2  0  0  0  0  0  0  0  0  0
   -0.8819   -1.3702    0.7787 C   0  0  0  0  0  0  0  0  0  0  0  0
   -1.1528   -0.6475    1.7051 O   0  0  0  0  0  0  0  0  0  0  0  0
   -1.0134   -2.7071    0.8261 O   0  0  0  0  0  0  0  0  0  0  0  0
    1.2371   -1.1571   -0.5675 C   0  0  0  0  0  0  0  0  0  0  0  0
    2.0111   -0.7535    0.6894 C   0  0  0  0  0  0  0  0  0  0  0  0
    2.1205    0.7289    0.9470 C   0  0  0  0  0  0  0  0  0  0  0  0
    1.7285    1.6244    0.2286 O   0  0  0  0  0  0  0  0  0  0  0  0
    2.7613    0.9784    2.0988 O   0  0  0  0  0  0  0  0  0  0  0  0
   -0.6475    0.4275   -0.8546 N   0  0  0  0  0  0  0  0  0  0  0  0
   -1.9597    0.7215   -1.0665 C   0  0  0  0  0  0  0  0  0  0  0  0
   -2.8138   -0.1510   -1.1383 O   0  0  0  0  0  0  0  0  0  0  0  0
   -2.2942    2.1870   -1.2240 C   0  0  0  0  0  0  0  0  0  0  0  0
   -0.7257   -1.5780   -1.3203 H   0  0  0  0  0  0  0  0  0  0  0  0
   -1.3825   -2.9083    1.7020 H   0  0  0  0  0  0  0  0  0  0  0  0
    1.4051   -2.2277   -0.7226 H   0  0  0  0  0  0  0  0  0  0  0  0
    1.6447   -0.6353   -1.4401 H   0  0  0  0  0  0  0  0  0  0  0  0
    1.5929   -1.2230    1.5878 H   0  0  0  0  0  0  0  0  0  0  0  0
    3.0405   -1.1237    0.6125 H   0  0  0  0  0  0  0  0  0  0  0  0
    2.8095    1.9457    2.1826 H   0  0  0  0  0  0  0  0  0  0  0  0
    0.0289    1.1604   -0.6688 H   0  0  0  0  0  0  0  0  0  0  0  0
   -2.7740    2.3327   -2.1963 H   0  0  0  0  0  0  0  0  0  0  0  0
   -3.0247    2.4600   -0.4568 H   0  0  0  0  0  0  0  0  0  0  0  0
   -1.4251    2.8482   -1.1463 H   0  0  0  0  0  0  0  0  0  0  0  0
  1 14  1  6  0  0  0
  1  2  1  0  0  0  0
  2  4  1  0  0  0  0
  2  3  2  0  0  0  0
  4 15  1  0  0  0  0
  5  1  1  0  0  0  0
  5  6  1  0  0  0  0
  6  7  1  0  0  0  0
  6 18  1  0  0  0  0
  7  9  1  0  0  0  0
  8  7  2  0  0  0  0
  9 20  1  0  0  0  0
 10 21  1  0  0  0  0
 10  1  1  0  0  0  0
 11 10  1  0  0  0  0
 12 11  2  0  0  0  0
 13 24  1  0  0  0  0
 13 11  1  0  0  0  0
 13 23  1  0  0  0  0
 16  5  1  0  0  0  0
 17  5  1  0  0  0  0
 19  6  1  0  0  0  0
 22 13  1  0  0  0  0
M  END
