omegapdb_1gs5_00.xyz
 OpenBabel12161914463D

 24 23  0  0  1  0  0  0  0  0999 V2000
   -0.2665   -0.8265    0.0983 C   0  0  2  0  0  0  0  0  0  0  0  0
   -1.1393   -2.0428    0.3552 C   0  0  0  0  0  0  0  0  0  0  0  0
   -2.3046   -1.9935    0.6704 O   0  0  0  0  0  0  0  0  0  0  0  0
   -0.4609   -3.1913    0.2264 O   0  0  0  0  0  0  0  0  0  0  0  0
    0.6753   -0.6206    1.3036 C   0  0  0  0  0  0  0  0  0  0  0  0
    1.7473    0.4566    1.0736 C   0  0  0  0  0  0  0  0  0  0  0  0
    2.7966   -0.0286    0.0800 C   0  0  0  0  0  0  0  0  0  0  0  0
    3.7886   -0.6126    0.4390 O   0  0  0  0  0  0  0  0  0  0  0  0
    2.5447    0.1661   -1.2211 O   0  0  0  0  0  0  0  0  0  0  0  0
   -1.1507    0.2954   -0.1311 N   0  0  0  0  0  0  0  0  0  0  0  0
   -0.9348    1.2560   -1.0635 C   0  0  0  0  0  0  0  0  0  0  0  0
    0.1158    1.3391   -1.6990 O   0  0  0  0  0  0  0  0  0  0  0  0
   -2.0632    2.2438   -1.2462 C   0  0  0  0  0  0  0  0  0  0  0  0
    0.3266   -1.0049   -0.8038 H   0  0  0  0  0  0  0  0  0  0  0  0
   -1.0874   -3.9054    0.4332 H   0  0  0  0  0  0  0  0  0  0  0  0
    0.0693   -0.3399    2.1726 H   0  0  0  0  0  0  0  0  0  0  0  0
    1.1634   -1.5737    1.5364 H   0  0  0  0  0  0  0  0  0  0  0  0
    1.2923    1.3974    0.7464 H   0  0  0  0  0  0  0  0  0  0  0  0
    2.2741    0.6403    2.0136 H   0  0  0  0  0  0  0  0  0  0  0  0
    1.7042    0.6551   -1.3723 H   0  0  0  0  0  0  0  0  0  0  0  0
   -2.0803    0.1940    0.2580 H   0  0  0  0  0  0  0  0  0  0  0  0
   -1.8941    2.7949   -2.1713 H   0  0  0  0  0  0  0  0  0  0  0  0
   -2.0780    2.9535   -0.4123 H   0  0  0  0  0  0  0  0  0  0  0  0
   -3.0383    1.7478   -1.2863 H   0  0  0  0  0  0  0  0  0  0  0  0
  1 14  1  6  0  0  0
  1  2  1  0  0  0  0
  1  5  1  0  0  0  0
  2  3  2  0  0  0  0
  4  2  1  0  0  0  0
  4 15  1  0  0  0  0
  5 17  1  0  0  0  0
  5 16  1  0  0  0  0
  6  5  1  0  0  0  0
  6 19  1  0  0  0  0
  7  8  2  0  0  0  0
  7  6  1  0  0  0  0
  9  7  1  0  0  0  0
 10  1  1  0  0  0  0
 10 21  1  0  0  0  0
 11 10  1  0  0  0  0
 12 11  2  0  0  0  0
 13 11  1  0  0  0  0
 13 23  1  0  0  0  0
 18  6  1  0  0  0  0
 20  9  1  0  0  0  0
 22 13  1  0  0  0  0
 24 13  1  0  0  0  0
M  END
