omegapdb_2f7p_10.xyz
 OpenBabel12161914463D

 34 35  0  0  1  0  0  0  0  0999 V2000
   -0.9008   -0.3663   -0.6412 C   0  0  1  0  0  0  0  0  0  0  0  0
   -0.1785    0.2999   -1.7026 N   0  0  0  0  0  0  0  0  0  0  0  0
    1.1867   -0.1649   -1.9291 C   0  0  0  0  0  0  0  0  0  0  0  0
    2.1587   -0.0063   -0.7691 C   0  0  0  0  0  0  0  0  0  0  0  0
    2.7871   -1.1204   -0.2096 C   0  0  0  0  0  0  0  0  0  0  0  0
    3.6709   -0.9831    0.8578 C   0  0  0  0  0  0  0  0  0  0  0  0
    3.9381    0.2763    1.3840 C   0  0  0  0  0  0  0  0  0  0  0  0
    3.3168    1.3946    0.8349 C   0  0  0  0  0  0  0  0  0  0  0  0
    2.4340    1.2553   -0.2314 C   0  0  0  0  0  0  0  0  0  0  0  0
   -0.6812    0.1782    0.7873 C   0  0  1  0  0  0  0  0  0  0  0  0
   -0.6761    1.5891    0.7143 O   0  0  0  0  0  0  0  0  0  0  0  0
   -1.9205   -0.3070    1.5964 C   0  0  1  0  0  0  0  0  0  0  0  0
   -2.3764    0.7381    2.4270 O   0  0  0  0  0  0  0  0  0  0  0  0
   -2.9666   -0.7351    0.5276 C   0  0  1  0  0  0  0  0  0  0  0  0
   -4.2254   -0.2073    0.8842 O   0  0  0  0  0  0  0  0  0  0  0  0
   -2.4113   -0.1957   -0.7918 C   0  0  2  0  0  0  0  0  0  0  0  0
   -3.1307   -1.0243   -2.2299 S   0  0  0  0  0  0  0  0  0  0  0  0
   -0.6597   -1.4389   -0.6627 H   0  0  0  0  0  0  0  0  0  0  0  0
   -0.1739    1.2970   -1.4973 H   0  0  0  0  0  0  0  0  0  0  0  0
    1.1417   -1.2225   -2.2171 H   0  0  0  0  0  0  0  0  0  0  0  0
    1.5569    0.3705   -2.8127 H   0  0  0  0  0  0  0  0  0  0  0  0
    2.5778   -2.1089   -0.6152 H   0  0  0  0  0  0  0  0  0  0  0  0
    4.1479   -1.8649    1.2787 H   0  0  0  0  0  0  0  0  0  0  0  0
    4.6271    0.3866    2.2175 H   0  0  0  0  0  0  0  0  0  0  0  0
    3.5159    2.3835    1.2409 H   0  0  0  0  0  0  0  0  0  0  0  0
    1.9576    2.1420   -0.6473 H   0  0  0  0  0  0  0  0  0  0  0  0
    0.2578   -0.1852    1.2288 H   0  0  0  0  0  0  0  0  0  0  0  0
   -1.1963    1.8763    1.4867 H   0  0  0  0  0  0  0  0  0  0  0  0
   -1.6535   -1.1687    2.2206 H   0  0  0  0  0  0  0  0  0  0  0  0
   -3.3349    0.8075    2.2785 H   0  0  0  0  0  0  0  0  0  0  0  0
   -2.9983   -1.8333    0.4919 H   0  0  0  0  0  0  0  0  0  0  0  0
   -4.8702   -0.4732    0.2138 H   0  0  0  0  0  0  0  0  0  0  0  0
   -2.6301    0.8750   -0.8435 H   0  0  0  0  0  0  0  0  0  0  0  0
   -2.2905   -0.4642   -3.1147 H   0  0  0  0  0  0  0  0  0  0  0  0
  1 16  1  6  0  0  0
  2 19  1  0  0  0  0
  2  1  1  0  0  0  0
  3  2  1  0  0  0  0
  3  4  1  0  0  0  0
  4  9  2  0  0  0  0
  4  5  1  0  0  0  0
  5  6  2  0  0  0  0
  6 23  1  0  0  0  0
  6  7  1  0  0  0  0
  7 24  1  0  0  0  0
  8 25  1  0  0  0  0
  8  7  2  0  0  0  0
  9  8  1  0  0  0  0
 10  1  1  6  0  0  0
 10 27  1  0  0  0  0
 10 12  1  0  0  0  0
 11 10  1  0  0  0  0
 11 28  1  0  0  0  0
 12 14  1  6  0  0  0
 12 29  1  0  0  0  0
 12 13  1  0  0  0  0
 14 16  1  6  0  0  0
 14 15  1  0  0  0  0
 16 33  1  6  0  0  0
 17 16  1  0  0  0  0
 18  1  1  0  0  0  0
 20  3  1  0  0  0  0
 21  3  1  0  0  0  0
 22  5  1  0  0  0  0
 26  9  1  0  0  0  0
 30 13  1  0  0  0  0
 31 14  1  0  0  0  0
 32 15  1  0  0  0  0
 34 17  1  0  0  0  0
M  END
