omegacsd_CDBMPI10_10.xyz
 OpenBabel12161914463D

 46 48  0  0  1  0  0  0  0  0999 V2000
    2.7802    1.5563    1.6900 O   0  0  0  0  0  0  0  0  0  0  0  0
    2.4467    0.5339    1.1104 C   0  0  0  0  0  0  0  0  0  0  0  0
    1.2393   -0.0839    1.3897 N   0  0  0  0  0  0  0  0  0  0  0  0
    0.3699   -0.8575    0.4847 C   0  0  1  0  0  0  0  0  0  0  0  0
   -0.6200    0.1043   -0.1822 C   0  0  0  0  0  0  0  0  0  0  0  0
   -1.3955    0.7873    0.8534 N   0  0  0  0  0  0  0  0  0  0  0  0
   -0.6136    1.5091    1.8698 C   0  0  1  0  0  0  0  0  0  0  0  0
    0.4370    0.5431    2.4376 C   0  0  0  0  0  0  0  0  0  0  0  0
   -0.0177    2.8158    1.3443 C   0  0  0  0  0  0  0  0  0  0  0  0
   -2.7059    1.1712    0.7028 C   0  0  0  0  0  0  0  0  0  0  0  0
   -3.1434    2.1856    1.2305 O   0  0  0  0  0  0  0  0  0  0  0  0
   -3.5967    0.2960   -0.1321 C   0  0  0  0  0  0  0  0  0  0  0  0
   -3.5595   -1.0982   -0.0698 C   0  0  0  0  0  0  0  0  0  0  0  0
   -4.4365   -1.8580   -0.8371 C   0  0  0  0  0  0  0  0  0  0  0  0
   -5.3558   -1.2284   -1.6723 C   0  0  0  0  0  0  0  0  0  0  0  0
   -5.4073    0.1629   -1.7238 C   0  0  0  0  0  0  0  0  0  0  0  0
   -4.5419    0.9214   -0.9447 C   0  0  0  0  0  0  0  0  0  0  0  0
    1.0451   -1.7823   -0.5085 C   0  0  0  0  0  0  0  0  0  0  0  0
    3.3807   -0.0528    0.0873 C   0  0  0  0  0  0  0  0  0  0  0  0
    4.1181   -1.2028    0.3690 C   0  0  0  0  0  0  0  0  0  0  0  0
    5.0269   -1.6943   -0.5639 C   0  0  0  0  0  0  0  0  0  0  0  0
    5.2110   -1.0365   -1.7760 C   0  0  0  0  0  0  0  0  0  0  0  0
    4.4884    0.1225   -2.0514 C   0  0  0  0  0  0  0  0  0  0  0  0
    3.5878    0.6209   -1.1167 C   0  0  0  0  0  0  0  0  0  0  0  0
   -0.2188   -1.4823    1.1679 H   0  0  0  0  0  0  0  0  0  0  0  0
   -1.2896   -0.4348   -0.8541 H   0  0  0  0  0  0  0  0  0  0  0  0
   -0.0707    0.8325   -0.8022 H   0  0  0  0  0  0  0  0  0  0  0  0
   -1.3219    1.7550    2.6681 H   0  0  0  0  0  0  0  0  0  0  0  0
    1.1064    1.0536    3.1302 H   0  0  0  0  0  0  0  0  0  0  0  0
   -0.0860   -0.2592    2.9730 H   0  0  0  0  0  0  0  0  0  0  0  0
   -0.8215    3.4996    1.0579 H   0  0  0  0  0  0  0  0  0  0  0  0
    0.6290    2.6491    0.4765 H   0  0  0  0  0  0  0  0  0  0  0  0
    0.5871    3.2895    2.1246 H   0  0  0  0  0  0  0  0  0  0  0  0
   -2.8491   -1.5951    0.5872 H   0  0  0  0  0  0  0  0  0  0  0  0
   -4.3910   -2.9419   -0.7895 H   0  0  0  0  0  0  0  0  0  0  0  0
   -6.0377   -1.8214   -2.2766 H   0  0  0  0  0  0  0  0  0  0  0  0
   -6.1302    0.6592   -2.3668 H   0  0  0  0  0  0  0  0  0  0  0  0
   -4.5838    2.0074   -0.9568 H   0  0  0  0  0  0  0  0  0  0  0  0
    1.7406   -2.4615   -0.0075 H   0  0  0  0  0  0  0  0  0  0  0  0
    0.2783   -2.3893   -1.0003 H   0  0  0  0  0  0  0  0  0  0  0  0
    1.5894   -1.2371   -1.2831 H   0  0  0  0  0  0  0  0  0  0  0  0
    3.9664   -1.7140    1.3172 H   0  0  0  0  0  0  0  0  0  0  0  0
    5.5926   -2.5938   -0.3402 H   0  0  0  0  0  0  0  0  0  0  0  0
    5.9186   -1.4243   -2.5047 H   0  0  0  0  0  0  0  0  0  0  0  0
    4.6307    0.6432   -2.9934 H   0  0  0  0  0  0  0  0  0  0  0  0
    3.0238    1.5298   -1.3184 H   0  0  0  0  0  0  0  0  0  0  0  0
  2  3  1  0  0  0  0
  2  1  2  0  0  0  0
  3  8  1  0  0  0  0
  4 25  1  1  0  0  0
  4  3  1  0  0  0  0
  5  4  1  0  0  0  0
  5  6  1  0  0  0  0
  6  7  1  0  0  0  0
  7  8  1  0  0  0  0
  7 28  1  1  0  0  0
  8 30  1  0  0  0  0
  8 29  1  0  0  0  0
  9  7  1  0  0  0  0
  9 33  1  0  0  0  0
 10  6  1  0  0  0  0
 10 11  2  0  0  0  0
 12 13  1  0  0  0  0
 12 10  1  0  0  0  0
 13 34  1  0  0  0  0
 14 35  1  0  0  0  0
 14 13  2  0  0  0  0
 15 14  1  0  0  0  0
 16 15  2  0  0  0  0
 16 17  1  0  0  0  0
 17 12  2  0  0  0  0
 18 39  1  0  0  0  0
 18  4  1  0  0  0  0
 19 20  1  0  0  0  0
 19  2  1  0  0  0  0
 20 42  1  0  0  0  0
 21 43  1  0  0  0  0
 21 20  2  0  0  0  0
 22 21  1  0  0  0  0
 23 22  2  0  0  0  0
 23 24  1  0  0  0  0
 24 19  2  0  0  0  0
 26  5  1  0  0  0  0
 27  5  1  0  0  0  0
 31  9  1  0  0  0  0
 32  9  1  0  0  0  0
 36 15  1  0  0  0  0
 37 16  1  0  0  0  0
 38 17  1  0  0  0  0
 40 18  1  0  0  0  0
 41 18  1  0  0  0  0
 44 22  1  0  0  0  0
 45 23  1  0  0  0  0
 46 24  1  0  0  0  0
M  END
