omegacsd_SEYMIS_07.xyz
 OpenBabel12161914463D

 45 47  0  0  0  0  0  0  0  0999 V2000
   -4.5948   -2.2699   -0.6389 O   0  0  0  0  0  0  0  0  0  0  0  0
   -5.0037   -0.9676   -0.7203 N   0  0  0  0  0  0  0  0  0  0  0  0
   -3.9590   -0.2194   -0.4669 C   0  0  0  0  0  0  0  0  0  0  0  0
   -2.7991   -1.0541   -0.2349 C   0  0  0  0  0  0  0  0  0  0  0  0
   -1.3856   -0.7207    0.0642 C   0  0  0  0  0  0  0  0  0  0  0  0
   -1.0362    0.2407    0.7320 O   0  0  0  0  0  0  0  0  0  0  0  0
   -0.4699   -1.5957   -0.4604 N   0  0  0  0  0  0  0  0  0  0  0  0
    0.9290   -1.4698   -0.3612 C   0  0  0  0  0  0  0  0  0  0  0  0
    1.8413   -2.3050   -0.9793 C   0  0  0  0  0  0  0  0  0  0  0  0
    3.1043   -1.8978   -0.6467 N   0  0  0  0  0  0  0  0  0  0  0  0
    4.3259   -2.5391   -1.0837 C   0  0  0  0  0  0  0  0  0  0  0  0
    3.0062   -0.8018    0.1823 C   0  0  0  0  0  0  0  0  0  0  0  0
    1.6622   -0.5209    0.3759 C   0  0  0  0  0  0  0  0  0  0  0  0
    4.1899   -0.1130    0.7120 C   0  0  0  0  0  0  0  0  0  0  0  0
    5.3431   -0.3868    0.4447 O   0  0  0  0  0  0  0  0  0  0  0  0
    3.8399    0.8786    1.5503 O   0  0  0  0  0  0  0  0  0  0  0  0
    4.9270    1.6235    2.1334 C   0  0  0  0  0  0  0  0  0  0  0  0
    5.5080    2.6314    1.1592 C   0  0  0  0  0  0  0  0  0  0  0  0
   -3.2933   -2.3291   -0.3532 C   0  0  0  0  0  0  0  0  0  0  0  0
   -2.7313   -3.7061   -0.2193 C   0  0  0  0  0  0  0  0  0  0  0  0
   -4.1539    1.2493   -0.5013 C   0  0  0  0  0  0  0  0  0  0  0  0
   -3.2563    2.1451    0.0808 C   0  0  0  0  0  0  0  0  0  0  0  0
   -3.4977    3.5130    0.0189 C   0  0  0  0  0  0  0  0  0  0  0  0
   -4.6355    4.0026   -0.6129 C   0  0  0  0  0  0  0  0  0  0  0  0
   -5.5403    3.1140   -1.1823 C   0  0  0  0  0  0  0  0  0  0  0  0
   -5.3029    1.7476   -1.1220 C   0  0  0  0  0  0  0  0  0  0  0  0
   -0.7991   -2.3293   -1.0670 H   0  0  0  0  0  0  0  0  0  0  0  0
    1.7020   -3.1594   -1.6296 H   0  0  0  0  0  0  0  0  0  0  0  0
    4.0580   -3.3823   -1.7241 H   0  0  0  0  0  0  0  0  0  0  0  0
    4.9508   -1.8367   -1.6372 H   0  0  0  0  0  0  0  0  0  0  0  0
    4.8981   -2.8997   -0.2267 H   0  0  0  0  0  0  0  0  0  0  0  0
    1.2418    0.2691    0.9794 H   0  0  0  0  0  0  0  0  0  0  0  0
    4.4734    2.1177    2.9943 H   0  0  0  0  0  0  0  0  0  0  0  0
    5.6917    0.9249    2.4851 H   0  0  0  0  0  0  0  0  0  0  0  0
    6.2496    3.2503    1.6744 H   0  0  0  0  0  0  0  0  0  0  0  0
    6.0002    2.1246    0.3260 H   0  0  0  0  0  0  0  0  0  0  0  0
    4.7226    3.2821    0.7636 H   0  0  0  0  0  0  0  0  0  0  0  0
   -2.2391   -4.0287   -1.1449 H   0  0  0  0  0  0  0  0  0  0  0  0
   -3.5416   -4.4081   -0.0118 H   0  0  0  0  0  0  0  0  0  0  0  0
   -1.9945   -3.7555    0.5851 H   0  0  0  0  0  0  0  0  0  0  0  0
   -2.3738    1.7713    0.5826 H   0  0  0  0  0  0  0  0  0  0  0  0
   -2.7874    4.2017    0.4683 H   0  0  0  0  0  0  0  0  0  0  0  0
   -4.8179    5.0728   -0.6608 H   0  0  0  0  0  0  0  0  0  0  0  0
   -6.4374    3.4843   -1.6727 H   0  0  0  0  0  0  0  0  0  0  0  0
   -6.0146    1.0517   -1.5547 H   0  0  0  0  0  0  0  0  0  0  0  0
  1 19  1  0  0  0  0
  2  1  1  0  0  0  0
  2  3  2  0  0  0  0
  3  4  1  0  0  0  0
  4  5  1  0  0  0  0
  5  6  2  0  0  0  0
  7  8  1  0  0  0  0
  7  5  1  0  0  0  0
  8 13  1  0  0  0  0
  9 10  1  0  0  0  0
  9  8  2  0  0  0  0
 10 12  1  0  0  0  0
 11 10  1  0  0  0  0
 11 31  1  0  0  0  0
 12 13  2  0  0  0  0
 12 14  1  0  0  0  0
 13 32  1  0  0  0  0
 14 16  1  0  0  0  0
 15 14  2  0  0  0  0
 16 17  1  0  0  0  0
 17 34  1  0  0  0  0
 17 33  1  0  0  0  0
 18 35  1  0  0  0  0
 18 17  1  0  0  0  0
 19  4  2  0  0  0  0
 19 20  1  0  0  0  0
 20 39  1  0  0  0  0
 20 40  1  0  0  0  0
 21  3  1  0  0  0  0
 21 22  2  0  0  0  0
 22 41  1  0  0  0  0
 23 22  1  0  0  0  0
 23 42  1  0  0  0  0
 24 23  2  0  0  0  0
 25 26  2  0  0  0  0
 25 24  1  0  0  0  0
 26 21  1  0  0  0  0
 27  7  1  0  0  0  0
 28  9  1  0  0  0  0
 29 11  1  0  0  0  0
 30 11  1  0  0  0  0
 36 18  1  0  0  0  0
 37 18  1  0  0  0  0
 38 20  1  0  0  0  0
 43 24  1  0  0  0  0
 44 25  1  0  0  0  0
 45 26  1  0  0  0  0
M  END
