omegapdb_2f7p_02.xyz
 OpenBabel12161914463D

 34 35  0  0  1  0  0  0  0  0999 V2000
   -0.6409   -0.3207    0.5319 C   0  0  1  0  0  0  0  0  0  0  0  0
    0.1916    0.1394    1.6203 N   0  0  0  0  0  0  0  0  0  0  0  0
    1.1707    1.1712    1.3026 C   0  0  0  0  0  0  0  0  0  0  0  0
    2.2165    0.6968    0.3124 C   0  0  0  0  0  0  0  0  0  0  0  0
    2.6792   -0.6198    0.3552 C   0  0  0  0  0  0  0  0  0  0  0  0
    3.6337   -1.0618   -0.5551 C   0  0  0  0  0  0  0  0  0  0  0  0
    4.1393   -0.1933   -1.5177 C   0  0  0  0  0  0  0  0  0  0  0  0
    3.6917    1.1229   -1.5601 C   0  0  0  0  0  0  0  0  0  0  0  0
    2.7381    1.5637   -0.6476 C   0  0  0  0  0  0  0  0  0  0  0  0
   -1.7194   -1.2877    1.0313 C   0  0  1  0  0  0  0  0  0  0  0  0
   -2.3940   -0.7826    2.1788 O   0  0  0  0  0  0  0  0  0  0  0  0
   -2.7125   -1.3556   -0.1315 C   0  0  1  0  0  0  0  0  0  0  0  0
   -3.9670   -1.8826    0.2397 O   0  0  0  0  0  0  0  0  0  0  0  0
   -2.8128    0.1232   -0.5755 C   0  0  1  0  0  0  0  0  0  0  0  0
   -3.7518    0.7678    0.2809 O   0  0  0  0  0  0  0  0  0  0  0  0
   -1.4310    0.7500   -0.2852 C   0  0  2  0  0  0  0  0  0  0  0  0
   -0.5550    1.4210   -1.7259 S   0  0  0  0  0  0  0  0  0  0  0  0
   -0.0042   -0.8798   -0.1713 H   0  0  0  0  0  0  0  0  0  0  0  0
   -0.4008    0.4224    2.3932 H   0  0  0  0  0  0  0  0  0  0  0  0
    0.7094    2.0990    0.9219 H   0  0  0  0  0  0  0  0  0  0  0  0
    1.6600    1.4447    2.2475 H   0  0  0  0  0  0  0  0  0  0  0  0
    2.2645   -1.2965    1.1000 H   0  0  0  0  0  0  0  0  0  0  0  0
    3.9743   -2.0933   -0.5176 H   0  0  0  0  0  0  0  0  0  0  0  0
    4.8816   -0.5423   -2.2309 H   0  0  0  0  0  0  0  0  0  0  0  0
    4.0816    1.8098   -2.3082 H   0  0  0  0  0  0  0  0  0  0  0  0
    2.3823    2.5917   -0.6921 H   0  0  0  0  0  0  0  0  0  0  0  0
   -1.3061   -2.2602    1.3130 H   0  0  0  0  0  0  0  0  0  0  0  0
   -2.8801    0.0136    1.8898 H   0  0  0  0  0  0  0  0  0  0  0  0
   -2.3169   -1.9693   -0.9487 H   0  0  0  0  0  0  0  0  0  0  0  0
   -3.9742   -1.8747    1.2112 H   0  0  0  0  0  0  0  0  0  0  0  0
   -3.1224    0.2289   -1.6227 H   0  0  0  0  0  0  0  0  0  0  0  0
   -4.5341    0.1925    0.2633 H   0  0  0  0  0  0  0  0  0  0  0  0
   -1.6256    1.6229    0.3460 H   0  0  0  0  0  0  0  0  0  0  0  0
   -0.2660    0.2387   -2.2934 H   0  0  0  0  0  0  0  0  0  0  0  0
  1 16  1  6  0  0  0
  1 10  1  0  0  0  0
  1  2  1  0  0  0  0
  2 19  1  0  0  0  0
  3  2  1  0  0  0  0
  3 21  1  0  0  0  0
  4  5  1  0  0  0  0
  4  3  1  0  0  0  0
  5 22  1  0  0  0  0
  6 23  1  0  0  0  0
  6  5  2  0  0  0  0
  7  6  1  0  0  0  0
  8  7  2  0  0  0  0
  8  9  1  0  0  0  0
  9  4  2  0  0  0  0
 10 12  1  6  0  0  0
 10 27  1  0  0  0  0
 10 11  1  0  0  0  0
 12 14  1  6  0  0  0
 12 13  1  0  0  0  0
 13 30  1  0  0  0  0
 14 16  1  1  0  0  0
 14 15  1  0  0  0  0
 16 33  1  1  0  0  0
 17 16  1  0  0  0  0
 18  1  1  0  0  0  0
 20  3  1  0  0  0  0
 24  7  1  0  0  0  0
 25  8  1  0  0  0  0
 26  9  1  0  0  0  0
 28 11  1  0  0  0  0
 29 12  1  0  0  0  0
 31 14  1  0  0  0  0
 32 15  1  0  0  0  0
 34 17  1  0  0  0  0
M  END
