omegapdb_1v2k_05.xyz
 OpenBabel12161914463D

 61 65  0  0  0  0  0  0  0  0999 V2000
    8.5578    1.8719    0.8767 N   0  0  0  0  0  0  0  0  0  0  0  0
    7.5373    1.5904    1.6886 C   0  0  0  0  0  0  0  0  0  0  0  0
    6.2868    1.1612    1.2713 C   0  0  0  0  0  0  0  0  0  0  0  0
    6.0464    0.9875   -0.1041 C   0  0  0  0  0  0  0  0  0  0  0  0
    7.1161    1.2846   -0.9676 C   0  0  0  0  0  0  0  0  0  0  0  0
    8.3173    1.7151   -0.4267 C   0  0  0  0  0  0  0  0  0  0  0  0
    4.8335    0.5566   -0.5752 N   0  0  0  0  0  0  0  0  0  0  0  0
    4.6840   -0.0639   -1.8823 C   0  0  0  0  0  0  0  0  0  0  0  0
    3.6694   -1.2075   -1.8234 C   0  0  0  0  0  0  0  0  0  0  0  0
    2.2749   -0.7290   -1.3796 C   0  0  0  0  0  0  0  0  0  0  0  0
    2.3936    0.5859   -0.5795 C   0  0  0  0  0  0  0  0  0  0  0  0
    3.6568    0.5883    0.2768 C   0  0  0  0  0  0  0  0  0  0  0  0
    1.6069   -1.8062   -0.5155 C   0  0  0  0  0  0  0  0  0  0  0  0
    2.2721   -2.5649    0.1759 O   0  0  0  0  0  0  0  0  0  0  0  0
    0.2340   -1.8786   -0.5267 N   0  0  0  0  0  0  0  0  0  0  0  0
   -0.6769   -0.8215   -0.9448 C   0  0  0  0  0  0  0  0  0  0  0  0
   -1.3509   -0.1623    0.2645 C   0  0  0  0  0  0  0  0  0  0  0  0
   -1.9942   -1.2065    1.0772 N   0  0  0  0  0  0  0  0  0  0  0  0
   -1.0407   -2.2367    1.5297 C   0  0  0  0  0  0  0  0  0  0  0  0
   -0.4122   -2.8906    0.3044 C   0  0  0  0  0  0  0  0  0  0  0  0
   -2.9714   -0.6206    2.3212 S   0  0  0  0  0  0  0  0  0  0  0  0
   -2.2443    0.3996    3.0636 O   0  0  0  0  0  0  0  0  0  0  0  0
   -3.5182   -1.7839    3.0037 O   0  0  0  0  0  0  0  0  0  0  0  0
   -4.2666    0.1738    1.4149 C   0  0  0  0  0  0  0  0  0  0  0  0
   -5.0179   -0.5703    0.5468 C   0  0  0  0  0  0  0  0  0  0  0  0
   -6.0557    0.0576   -0.1948 C   0  0  0  0  0  0  0  0  0  0  0  0
   -6.2961    1.4435   -0.0127 C   0  0  0  0  0  0  0  0  0  0  0  0
   -5.4926    2.1744    0.9077 C   0  0  0  0  0  0  0  0  0  0  0  0
   -4.4954    1.5551    1.6117 C   0  0  0  0  0  0  0  0  0  0  0  0
   -7.3356    2.0722   -0.7505 C   0  0  0  0  0  0  0  0  0  0  0  0
   -8.0892    1.3401   -1.6251 C   0  0  0  0  0  0  0  0  0  0  0  0
   -7.8605   -0.0440   -1.8199 C   0  0  0  0  0  0  0  0  0  0  0  0
   -6.8625   -0.6613   -1.1151 C   0  0  0  0  0  0  0  0  0  0  0  0
   -9.3648    2.1078   -2.5304 Cl  0  0  0  0  0  0  0  0  0  0  0  0
    7.7266    1.7205    2.7547 H   0  0  0  0  0  0  0  0  0  0  0  0
    5.5204    0.9482    2.0092 H   0  0  0  0  0  0  0  0  0  0  0  0
    7.0087    1.2079   -2.0452 H   0  0  0  0  0  0  0  0  0  0  0  0
    9.1490    1.9428   -1.0933 H   0  0  0  0  0  0  0  0  0  0  0  0
    5.6548   -0.4608   -2.1915 H   0  0  0  0  0  0  0  0  0  0  0  0
    4.3780    0.6794   -2.6358 H   0  0  0  0  0  0  0  0  0  0  0  0
    4.0169   -1.9574   -1.1073 H   0  0  0  0  0  0  0  0  0  0  0  0
    3.6092   -1.6927   -2.8031 H   0  0  0  0  0  0  0  0  0  0  0  0
    1.6549   -0.5542   -2.2651 H   0  0  0  0  0  0  0  0  0  0  0  0
    2.4313    1.4347   -1.2726 H   0  0  0  0  0  0  0  0  0  0  0  0
    1.5170    0.7458    0.0587 H   0  0  0  0  0  0  0  0  0  0  0  0
    3.6862    1.4974    0.8867 H   0  0  0  0  0  0  0  0  0  0  0  0
    3.6478   -0.2714    0.9649 H   0  0  0  0  0  0  0  0  0  0  0  0
   -0.1593   -0.0725   -1.5458 H   0  0  0  0  0  0  0  0  0  0  0  0
   -1.4583   -1.2724   -1.5710 H   0  0  0  0  0  0  0  0  0  0  0  0
   -2.1163    0.5367   -0.0875 H   0  0  0  0  0  0  0  0  0  0  0  0
   -0.6307    0.4034    0.8714 H   0  0  0  0  0  0  0  0  0  0  0  0
   -0.2607   -1.7896    2.1632 H   0  0  0  0  0  0  0  0  0  0  0  0
   -1.5925   -2.9690    2.1264 H   0  0  0  0  0  0  0  0  0  0  0  0
    0.3376   -3.6286    0.5927 H   0  0  0  0  0  0  0  0  0  0  0  0
   -1.2009   -3.3774   -0.2845 H   0  0  0  0  0  0  0  0  0  0  0  0
   -4.8266   -1.6329    0.4246 H   0  0  0  0  0  0  0  0  0  0  0  0
   -5.6843    3.2351    1.0424 H   0  0  0  0  0  0  0  0  0  0  0  0
   -3.8728    2.0922    2.3207 H   0  0  0  0  0  0  0  0  0  0  0  0
   -7.5253    3.1332   -0.6140 H   0  0  0  0  0  0  0  0  0  0  0  0
   -8.4790   -0.5920   -2.5240 H   0  0  0  0  0  0  0  0  0  0  0  0
   -6.6733   -1.7240   -1.2525 H   0  0  0  0  0  0  0  0  0  0  0  0
  1  2  2  0  0  0  0
  2 35  1  0  0  0  0
  3  2  1  0  0  0  0
  3 36  1  0  0  0  0
  4  3  2  0  0  0  0
  5  6  2  0  0  0  0
  5  4  1  0  0  0  0
  6  1  1  0  0  0  0
  7  4  1  0  0  0  0
  7 12  1  0  0  0  0
  8  9  1  0  0  0  0
  8  7  1  0  0  0  0
  9 10  1  0  0  0  0
  9 41  1  0  0  0  0
 10 11  1  0  0  0  0
 10 13  1  0  0  0  0
 11 45  1  0  0  0  0
 11 12  1  0  0  0  0
 12 46  1  0  0  0  0
 12 47  1  0  0  0  0
 13 14  2  0  0  0  0
 15 13  1  0  0  0  0
 15 20  1  0  0  0  0
 16 15  1  0  0  0  0
 16 17  1  0  0  0  0
 17 51  1  0  0  0  0
 17 18  1  0  0  0  0
 18 19  1  0  0  0  0
 18 21  1  0  0  0  0
 19 53  1  0  0  0  0
 19 52  1  0  0  0  0
 20 54  1  0  0  0  0
 20 19  1  0  0  0  0
 21 23  2  0  0  0  0
 21 22  2  0  0  0  0
 24 29  1  0  0  0  0
 24 21  1  0  0  0  0
 25 24  2  0  0  0  0
 26 27  1  0  0  0  0
 26 25  1  0  0  0  0
 27 28  1  0  0  0  0
 28 57  1  0  0  0  0
 28 29  2  0  0  0  0
 29 58  1  0  0  0  0
 30 59  1  0  0  0  0
 30 27  2  0  0  0  0
 31 30  1  0  0  0  0
 32 31  2  0  0  0  0
 32 33  1  0  0  0  0
 33 26  2  0  0  0  0
 34 31  1  0  0  0  0
 37  5  1  0  0  0  0
 38  6  1  0  0  0  0
 39  8  1  0  0  0  0
 40  8  1  0  0  0  0
 42  9  1  0  0  0  0
 43 10  1  0  0  0  0
 44 11  1  0  0  0  0
 48 16  1  0  0  0  0
 49 16  1  0  0  0  0
 50 17  1  0  0  0  0
 55 20  1  0  0  0  0
 56 25  1  0  0  0  0
 60 32  1  0  0  0  0
 61 33  1  0  0  0  0
M  END
