omegacsd_CDBMPI10_06.xyz
 OpenBabel12161914463D

 46 48  0  0  1  0  0  0  0  0999 V2000
    1.7454    0.1980   -2.0072 O   0  0  0  0  0  0  0  0  0  0  0  0
    2.1238   -0.1501   -0.8963 C   0  0  0  0  0  0  0  0  0  0  0  0
    1.3219   -0.8658   -0.0168 N   0  0  0  0  0  0  0  0  0  0  0  0
    0.1239   -1.5541   -0.5130 C   0  0  1  0  0  0  0  0  0  0  0  0
   -1.0423   -0.5617   -0.5848 C   0  0  0  0  0  0  0  0  0  0  0  0
   -1.2486    0.0504    0.7267 N   0  0  0  0  0  0  0  0  0  0  0  0
   -0.0786    0.6104    1.4162 C   0  0  1  0  0  0  0  0  0  0  0  0
    1.0973   -0.3826    1.3430 C   0  0  0  0  0  0  0  0  0  0  0  0
    0.2849    1.9884    0.8607 C   0  0  0  0  0  0  0  0  0  0  0  0
   -2.4676    0.1897    1.3480 C   0  0  0  0  0  0  0  0  0  0  0  0
   -2.5495    0.3780    2.5544 O   0  0  0  0  0  0  0  0  0  0  0  0
   -3.7247    0.0821    0.5247 C   0  0  0  0  0  0  0  0  0  0  0  0
   -3.8619    0.6518   -0.7429 C   0  0  0  0  0  0  0  0  0  0  0  0
   -5.0608    0.5312   -1.4389 C   0  0  0  0  0  0  0  0  0  0  0  0
   -6.1332   -0.1503   -0.8707 C   0  0  0  0  0  0  0  0  0  0  0  0
   -6.0117   -0.6889    0.4084 C   0  0  0  0  0  0  0  0  0  0  0  0
   -4.8191   -0.5565    1.1090 C   0  0  0  0  0  0  0  0  0  0  0  0
    0.3267   -2.3400   -1.7998 C   0  0  0  0  0  0  0  0  0  0  0  0
    3.4936    0.2243   -0.3988 C   0  0  0  0  0  0  0  0  0  0  0  0
    4.1917   -0.5574    0.5227 C   0  0  0  0  0  0  0  0  0  0  0  0
    5.4787   -0.1978    0.9119 C   0  0  0  0  0  0  0  0  0  0  0  0
    6.0734    0.9468    0.3879 C   0  0  0  0  0  0  0  0  0  0  0  0
    5.3799    1.7284   -0.5334 C   0  0  0  0  0  0  0  0  0  0  0  0
    4.1011    1.3623   -0.9346 C   0  0  0  0  0  0  0  0  0  0  0  0
   -0.1211   -2.2663    0.2869 H   0  0  0  0  0  0  0  0  0  0  0  0
   -0.8153    0.1958   -1.3514 H   0  0  0  0  0  0  0  0  0  0  0  0
   -1.9559   -1.0859   -0.8748 H   0  0  0  0  0  0  0  0  0  0  0  0
   -0.3796    0.7139    2.4625 H   0  0  0  0  0  0  0  0  0  0  0  0
    0.8691   -1.2546    1.9699 H   0  0  0  0  0  0  0  0  0  0  0  0
    2.0083    0.0851    1.7244 H   0  0  0  0  0  0  0  0  0  0  0  0
   -0.5457    2.6870    1.0017 H   0  0  0  0  0  0  0  0  0  0  0  0
    1.1597    2.3936    1.3823 H   0  0  0  0  0  0  0  0  0  0  0  0
    0.5153    1.9406   -0.2113 H   0  0  0  0  0  0  0  0  0  0  0  0
   -3.0329    1.1953   -1.1908 H   0  0  0  0  0  0  0  0  0  0  0  0
   -5.1496    0.9630   -2.4315 H   0  0  0  0  0  0  0  0  0  0  0  0
   -7.0669   -0.2493   -1.4176 H   0  0  0  0  0  0  0  0  0  0  0  0
   -6.8520   -1.2054    0.8653 H   0  0  0  0  0  0  0  0  0  0  0  0
   -4.7167   -0.9431    2.1196 H   0  0  0  0  0  0  0  0  0  0  0  0
    1.1825   -3.0150   -1.7001 H   0  0  0  0  0  0  0  0  0  0  0  0
   -0.5632   -2.9482   -2.0004 H   0  0  0  0  0  0  0  0  0  0  0  0
    0.5033   -1.6788   -2.6494 H   0  0  0  0  0  0  0  0  0  0  0  0
    3.7264   -1.4491    0.9350 H   0  0  0  0  0  0  0  0  0  0  0  0
    6.0130   -0.8108    1.6319 H   0  0  0  0  0  0  0  0  0  0  0  0
    7.0793    1.2252    0.6919 H   0  0  0  0  0  0  0  0  0  0  0  0
    5.8408    2.6197   -0.9516 H   0  0  0  0  0  0  0  0  0  0  0  0
    3.5569    1.9507   -1.6685 H   0  0  0  0  0  0  0  0  0  0  0  0
  1  2  2  0  0  0  0
  2 19  1  0  0  0  0
  2  3  1  0  0  0  0
  3  8  1  0  0  0  0
  4  3  1  0  0  0  0
  4 25  1  1  0  0  0
  5  4  1  0  0  0  0
  5  6  1  0  0  0  0
  6 10  1  0  0  0  0
  6  7  1  0  0  0  0
  7 28  1  1  0  0  0
  8  7  1  0  0  0  0
  8 30  1  0  0  0  0
  8 29  1  0  0  0  0
  9 31  1  0  0  0  0
  9 32  1  0  0  0  0
  9  7  1  0  0  0  0
 10 11  2  0  0  0  0
 12 17  1  0  0  0  0
 12 10  1  0  0  0  0
 13 12  2  0  0  0  0
 14 15  2  0  0  0  0
 14 13  1  0  0  0  0
 15 16  1  0  0  0  0
 16 37  1  0  0  0  0
 16 17  2  0  0  0  0
 17 38  1  0  0  0  0
 18 39  1  0  0  0  0
 18  4  1  0  0  0  0
 19 20  2  0  0  0  0
 20 21  1  0  0  0  0
 20 42  1  0  0  0  0
 21 43  1  0  0  0  0
 22 44  1  0  0  0  0
 22 21  2  0  0  0  0
 23 22  1  0  0  0  0
 24 23  2  0  0  0  0
 24 19  1  0  0  0  0
 26  5  1  0  0  0  0
 27  5  1  0  0  0  0
 33  9  1  0  0  0  0
 34 13  1  0  0  0  0
 35 14  1  0  0  0  0
 36 15  1  0  0  0  0
 40 18  1  0  0  0  0
 41 18  1  0  0  0  0
 45 23  1  0  0  0  0
 46 24  1  0  0  0  0
M  END
