omegapdb_2byh_00.xyz
 OpenBabel12161914463D

 40 42  0  0  0  0  0  0  0  0999 V2000
    6.8887    1.0055    1.3263 O   0  0  0  0  0  0  0  0  0  0  0  0
    5.8164    1.4851    1.6420 C   0  0  0  0  0  0  0  0  0  0  0  0
    5.7405    2.7795    2.4233 C   0  0  0  0  0  0  0  0  0  0  0  0
    4.5423    0.8048    1.2615 C   0  0  0  0  0  0  0  0  0  0  0  0
    3.2868    1.3198    1.5822 C   0  0  0  0  0  0  0  0  0  0  0  0
    2.1165    0.6718    1.2118 C   0  0  0  0  0  0  0  0  0  0  0  0
    2.1984   -0.5266    0.5003 C   0  0  0  0  0  0  0  0  0  0  0  0
    3.4543   -1.0530    0.1727 C   0  0  0  0  0  0  0  0  0  0  0  0
    4.6115   -0.3968    0.5505 C   0  0  0  0  0  0  0  0  0  0  0  0
    1.0626   -1.2511    0.0846 N   0  0  0  0  0  0  0  0  0  0  0  0
   -0.2513   -1.0103    0.3535 C   0  0  0  0  0  0  0  0  0  0  0  0
   -0.6421   -0.0537    1.0231 O   0  0  0  0  0  0  0  0  0  0  0  0
   -1.1959   -1.9979   -0.2105 C   0  0  0  0  0  0  0  0  0  0  0  0
   -1.0038   -3.4001   -0.3134 C   0  0  0  0  0  0  0  0  0  0  0  0
   -2.0582   -4.0069   -0.8306 N   0  0  0  0  0  0  0  0  0  0  0  0
   -2.9128   -3.0064   -1.0939 N   0  0  0  0  0  0  0  0  0  0  0  0
   -2.4732   -1.7761   -0.7244 C   0  0  0  0  0  0  0  0  0  0  0  0
   -3.2920   -0.5739   -0.9784 C   0  0  0  0  0  0  0  0  0  0  0  0
   -3.7937   -0.3479   -2.2671 C   0  0  0  0  0  0  0  0  0  0  0  0
   -4.6850    0.6715   -2.5325 C   0  0  0  0  0  0  0  0  0  0  0  0
   -5.2877    0.9348   -4.1490 Cl  0  0  0  0  0  0  0  0  0  0  0  0
   -5.1493    1.4945   -1.4974 C   0  0  0  0  0  0  0  0  0  0  0  0
   -6.0450    2.4840   -1.6846 O   0  0  0  0  0  0  0  0  0  0  0  0
   -4.6655    1.2842   -0.2148 C   0  0  0  0  0  0  0  0  0  0  0  0
   -3.7140    0.2999    0.0486 C   0  0  0  0  0  0  0  0  0  0  0  0
   -3.3022    0.1951    1.3263 O   0  0  0  0  0  0  0  0  0  0  0  0
    5.1913    3.5411    1.8583 H   0  0  0  0  0  0  0  0  0  0  0  0
    6.7550    3.1299    2.6194 H   0  0  0  0  0  0  0  0  0  0  0  0
    5.2129    2.6299    3.3719 H   0  0  0  0  0  0  0  0  0  0  0  0
    3.2024    2.2500    2.1384 H   0  0  0  0  0  0  0  0  0  0  0  0
    1.1537    1.0869    1.4700 H   0  0  0  0  0  0  0  0  0  0  0  0
    3.5255   -1.9882   -0.3778 H   0  0  0  0  0  0  0  0  0  0  0  0
    5.5874   -0.8023    0.3023 H   0  0  0  0  0  0  0  0  0  0  0  0
    1.2473   -2.0389   -0.5184 H   0  0  0  0  0  0  0  0  0  0  0  0
   -0.1590   -3.9919    0.0163 H   0  0  0  0  0  0  0  0  0  0  0  0
   -3.8289   -3.2269   -1.4613 H   0  0  0  0  0  0  0  0  0  0  0  0
   -3.4732   -0.9886   -3.0825 H   0  0  0  0  0  0  0  0  0  0  0  0
   -6.2916    2.5180   -2.6206 H   0  0  0  0  0  0  0  0  0  0  0  0
   -5.0150    1.9070    0.6018 H   0  0  0  0  0  0  0  0  0  0  0  0
   -2.3539   -0.0557    1.3376 H   0  0  0  0  0  0  0  0  0  0  0  0
  1  2  2  0  0  0  0
  2  3  1  0  0  0  0
  3 28  1  0  0  0  0
  3 29  1  0  0  0  0
  4  5  1  0  0  0  0
  4  2  1  0  0  0  0
  5 30  1  0  0  0  0
  6 31  1  0  0  0  0
  6  5  2  0  0  0  0
  7  6  1  0  0  0  0
  8  7  2  0  0  0  0
  8  9  1  0  0  0  0
  9  4  2  0  0  0  0
 10 11  1  0  0  0  0
 10  7  1  0  0  0  0
 11 12  2  0  0  0  0
 13 11  1  0  0  0  0
 14 13  1  0  0  0  0
 14 35  1  0  0  0  0
 15 14  2  0  0  0  0
 16 15  1  0  0  0  0
 16 17  1  0  0  0  0
 17 13  2  0  0  0  0
 18 17  1  0  0  0  0
 18 25  2  0  0  0  0
 19 18  1  0  0  0  0
 20 19  2  0  0  0  0
 20 22  1  0  0  0  0
 21 20  1  0  0  0  0
 22 24  2  0  0  0  0
 23 22  1  0  0  0  0
 24 25  1  0  0  0  0
 24 39  1  0  0  0  0
 25 26  1  0  0  0  0
 26 40  1  0  0  0  0
 27  3  1  0  0  0  0
 32  8  1  0  0  0  0
 33  9  1  0  0  0  0
 34 10  1  0  0  0  0
 36 16  1  0  0  0  0
 37 19  1  0  0  0  0
 38 23  1  0  0  0  0
M  END
