omegacsd_CEJTIU_04.xyz
 OpenBabel12161914463D

 41 42  0  0  0  0  0  0  0  0999 V2000
   -6.0395   -0.2046    1.9415 C   0  0  0  0  0  0  0  0  0  0  0  0
   -5.6246    0.3329    0.6591 N   0  0  0  0  0  0  0  0  0  0  0  0
   -6.5052   -0.0185   -0.4340 C   0  0  0  0  0  0  0  0  0  0  0  0
   -4.2559    0.4123    0.3876 C   0  0  0  0  0  0  0  0  0  0  0  0
   -3.7361    0.1671   -0.8948 C   0  0  0  0  0  0  0  0  0  0  0  0
   -2.3802    0.2704   -1.1738 C   0  0  0  0  0  0  0  0  0  0  0  0
   -1.4905    0.6442   -0.1695 C   0  0  0  0  0  0  0  0  0  0  0  0
   -1.9925    0.9088    1.1063 C   0  0  0  0  0  0  0  0  0  0  0  0
   -3.3429    0.7897    1.3858 C   0  0  0  0  0  0  0  0  0  0  0  0
   -0.1096    0.7980   -0.3751 N   0  0  0  0  0  0  0  0  0  0  0  0
    0.6154    0.2508   -1.3891 C   0  0  0  0  0  0  0  0  0  0  0  0
    0.1935   -0.4354   -2.3005 O   0  0  0  0  0  0  0  0  0  0  0  0
    1.9997    0.5384   -1.3401 N   0  0  0  0  0  0  0  0  0  0  0  0
    2.7104    1.2548   -0.4088 C   0  0  0  0  0  0  0  0  0  0  0  0
    2.2070    1.7520    0.5894 O   0  0  0  0  0  0  0  0  0  0  0  0
    4.1988    1.3303   -0.6878 C   0  0  0  0  0  0  0  0  0  0  0  0
    4.8840    0.0378   -0.2936 C   0  0  0  0  0  0  0  0  0  0  0  0
    4.7226   -0.4582    1.0008 C   0  0  0  0  0  0  0  0  0  0  0  0
    5.3585   -1.6313    1.3911 C   0  0  0  0  0  0  0  0  0  0  0  0
    6.1562   -2.3276    0.4861 C   0  0  0  0  0  0  0  0  0  0  0  0
    6.3119   -1.8459   -0.8096 C   0  0  0  0  0  0  0  0  0  0  0  0
    5.6788   -0.6662   -1.1947 C   0  0  0  0  0  0  0  0  0  0  0  0
   -5.5421    0.3076    2.7681 H   0  0  0  0  0  0  0  0  0  0  0  0
   -5.8436   -1.2856    2.0360 H   0  0  0  0  0  0  0  0  0  0  0  0
   -7.1153   -0.0411    2.0604 H   0  0  0  0  0  0  0  0  0  0  0  0
   -6.3647    0.6685   -1.2749 H   0  0  0  0  0  0  0  0  0  0  0  0
   -7.5415    0.0774   -0.0995 H   0  0  0  0  0  0  0  0  0  0  0  0
   -6.3551   -1.0511   -0.7923 H   0  0  0  0  0  0  0  0  0  0  0  0
   -4.3935   -0.1322   -1.7030 H   0  0  0  0  0  0  0  0  0  0  0  0
   -2.0140    0.0591   -2.1710 H   0  0  0  0  0  0  0  0  0  0  0  0
   -1.3089    1.2040    1.9002 H   0  0  0  0  0  0  0  0  0  0  0  0
   -3.6870    1.0177    2.3885 H   0  0  0  0  0  0  0  0  0  0  0  0
    0.4254    1.2989    0.3310 H   0  0  0  0  0  0  0  0  0  0  0  0
    2.5107    0.0911   -2.0865 H   0  0  0  0  0  0  0  0  0  0  0  0
    4.3742    1.5501   -1.7470 H   0  0  0  0  0  0  0  0  0  0  0  0
    4.5794    2.1717   -0.1010 H   0  0  0  0  0  0  0  0  0  0  0  0
    4.0892    0.0885    1.6975 H   0  0  0  0  0  0  0  0  0  0  0  0
    5.2323   -2.0054    2.4040 H   0  0  0  0  0  0  0  0  0  0  0  0
    6.6544   -3.2444    0.7925 H   0  0  0  0  0  0  0  0  0  0  0  0
    6.9325   -2.3856   -1.5217 H   0  0  0  0  0  0  0  0  0  0  0  0
    5.8081   -0.2893   -2.2072 H   0  0  0  0  0  0  0  0  0  0  0  0
  1 24  1  0  0  0  0
  1 25  1  0  0  0  0
  1 23  1  0  0  0  0
  2  1  1  0  0  0  0
  3 27  1  0  0  0  0
  3  2  1  0  0  0  0
  4  2  1  0  0  0  0
  4  9  2  0  0  0  0
  5  4  1  0  0  0  0
  6  5  2  0  0  0  0
  6  7  1  0  0  0  0
  7  8  2  0  0  0  0
  8  9  1  0  0  0  0
  8 31  1  0  0  0  0
  9 32  1  0  0  0  0
 10  7  1  0  0  0  0
 10 33  1  0  0  0  0
 11 13  1  0  0  0  0
 11 10  1  0  0  0  0
 12 11  2  0  0  0  0
 13 14  1  0  0  0  0
 14 15  2  0  0  0  0
 16 14  1  0  0  0  0
 16 17  1  0  0  0  0
 16 36  1  0  0  0  0
 17 18  2  0  0  0  0
 18 19  1  0  0  0  0
 18 37  1  0  0  0  0
 19 38  1  0  0  0  0
 20 39  1  0  0  0  0
 20 19  2  0  0  0  0
 21 20  1  0  0  0  0
 22 21  2  0  0  0  0
 22 17  1  0  0  0  0
 26  3  1  0  0  0  0
 28  3  1  0  0  0  0
 29  5  1  0  0  0  0
 30  6  1  0  0  0  0
 34 13  1  0  0  0  0
 35 16  1  0  0  0  0
 40 21  1  0  0  0  0
 41 22  1  0  0  0  0
M  END
