omegacsd_SPIRIL_07.xyz
 OpenBabel12161914463D

 57 60  0  0  1  0  0  0  0  0999 V2000
   -2.0512   -1.6752    0.9793 C   0  0  0  0  0  0  0  0  0  0  0  0
   -3.0688   -1.5179   -0.1596 C   0  0  1  0  0  0  0  0  0  0  0  0
   -3.9187   -2.7837   -0.3618 C   0  0  0  0  0  0  0  0  0  0  0  0
   -3.5366   -3.9382   -0.3900 O   0  0  0  0  0  0  0  0  0  0  0  0
   -5.2010   -2.3635   -0.5482 N   0  0  0  0  0  0  0  0  0  0  0  0
   -5.4072   -0.9593   -0.2882 C   0  0  0  0  0  0  0  0  0  0  0  0
   -4.1076   -0.5291    0.2005 N   0  0  0  0  0  0  0  0  0  0  0  0
   -3.8184    0.8616    0.1949 C   0  0  0  0  0  0  0  0  0  0  0  0
   -3.3957    1.4761    1.3771 C   0  0  0  0  0  0  0  0  0  0  0  0
   -3.1099    2.8367    1.4068 C   0  0  0  0  0  0  0  0  0  0  0  0
   -3.2335    3.6052    0.2537 C   0  0  0  0  0  0  0  0  0  0  0  0
   -3.6471    3.0013   -0.9299 C   0  0  0  0  0  0  0  0  0  0  0  0
   -3.9378    1.6413   -0.9641 C   0  0  0  0  0  0  0  0  0  0  0  0
   -2.3312   -1.2016   -1.4863 C   0  0  0  0  0  0  0  0  0  0  0  0
   -1.1911   -2.1998   -1.7303 C   0  0  0  0  0  0  0  0  0  0  0  0
   -0.2230   -2.2624   -0.6404 N   0  0  0  0  0  0  0  0  0  0  0  0
    0.6467   -1.0968   -0.5446 C   0  0  0  0  0  0  0  0  0  0  0  0
    1.9980   -1.4343    0.0844 C   0  0  0  0  0  0  0  0  0  0  0  0
    2.8684   -0.2156    0.2352 C   0  0  0  0  0  0  0  0  0  0  0  0
    4.2056   -0.1652    0.2100 C   0  0  0  0  0  0  0  0  0  0  0  0
    4.9070    1.1450    0.3515 C   0  0  0  0  0  0  0  0  0  0  0  0
    4.3619    2.3144   -0.1967 C   0  0  0  0  0  0  0  0  0  0  0  0
    5.0057    3.5378   -0.0702 C   0  0  0  0  0  0  0  0  0  0  0  0
    6.2037    3.5904    0.6266 C   0  0  0  0  0  0  0  0  0  0  0  0
    6.7754    2.4586    1.1845 C   0  0  0  0  0  0  0  0  0  0  0  0
    6.1233    1.2412    1.0343 C   0  0  0  0  0  0  0  0  0  0  0  0
    6.8280    4.7724    0.7618 F   0  0  0  0  0  0  0  0  0  0  0  0
    5.0735   -1.3916    0.0696 C   0  0  0  0  0  0  0  0  0  0  0  0
   -0.9019   -2.6239    0.6032 C   0  0  0  0  0  0  0  0  0  0  0  0
   -1.6404   -0.6830    1.2087 H   0  0  0  0  0  0  0  0  0  0  0  0
   -2.5626   -2.0271    1.8802 H   0  0  0  0  0  0  0  0  0  0  0  0
   -5.9407   -3.0384   -0.6494 H   0  0  0  0  0  0  0  0  0  0  0  0
   -6.1838   -0.7933    0.4708 H   0  0  0  0  0  0  0  0  0  0  0  0
   -5.6969   -0.4107   -1.2017 H   0  0  0  0  0  0  0  0  0  0  0  0
   -3.2986    0.8647    2.2720 H   0  0  0  0  0  0  0  0  0  0  0  0
   -2.7825    3.2920    2.3374 H   0  0  0  0  0  0  0  0  0  0  0  0
   -3.0075    4.6677    0.2755 H   0  0  0  0  0  0  0  0  0  0  0  0
   -3.7443    3.5919   -1.8370 H   0  0  0  0  0  0  0  0  0  0  0  0
   -4.2262    1.1669   -1.9013 H   0  0  0  0  0  0  0  0  0  0  0  0
   -3.0426   -1.2203   -2.3203 H   0  0  0  0  0  0  0  0  0  0  0  0
   -1.9166   -0.1857   -1.4359 H   0  0  0  0  0  0  0  0  0  0  0  0
   -0.6595   -1.9515   -2.6561 H   0  0  0  0  0  0  0  0  0  0  0  0
   -1.6114   -3.2032   -1.8579 H   0  0  0  0  0  0  0  0  0  0  0  0
    0.8210   -0.7257   -1.5619 H   0  0  0  0  0  0  0  0  0  0  0  0
    0.1842   -0.2649    0.0202 H   0  0  0  0  0  0  0  0  0  0  0  0
    2.4830   -2.2122   -0.5156 H   0  0  0  0  0  0  0  0  0  0  0  0
    1.8250   -1.8710    1.0786 H   0  0  0  0  0  0  0  0  0  0  0  0
    2.3247    0.7026    0.4710 H   0  0  0  0  0  0  0  0  0  0  0  0
    3.4298    2.2586   -0.7540 H   0  0  0  0  0  0  0  0  0  0  0  0
    4.5881    4.4466   -0.4922 H   0  0  0  0  0  0  0  0  0  0  0  0
    7.7175    2.5379    1.7171 H   0  0  0  0  0  0  0  0  0  0  0  0
    6.5667    0.3491    1.4689 H   0  0  0  0  0  0  0  0  0  0  0  0
    4.5232   -2.2460   -0.3339 H   0  0  0  0  0  0  0  0  0  0  0  0
    5.4903   -1.6960    1.0384 H   0  0  0  0  0  0  0  0  0  0  0  0
    5.9147   -1.1835   -0.5989 H   0  0  0  0  0  0  0  0  0  0  0  0
   -0.1680   -2.6542    1.4152 H   0  0  0  0  0  0  0  0  0  0  0  0
   -1.3032   -3.6348    0.4808 H   0  0  0  0  0  0  0  0  0  0  0  0
  1 30  1  0  0  0  0
  1 31  1  0  0  0  0
  2  3  1  6  0  0  0
  2  7  1  0  0  0  0
  2  1  1  0  0  0  0
  4  3  2  0  0  0  0
  5  3  1  0  0  0  0
  5  6  1  0  0  0  0
  6  7  1  0  0  0  0
  6 33  1  0  0  0  0
  8  7  1  0  0  0  0
  8  9  2  0  0  0  0
  9 10  1  0  0  0  0
  9 35  1  0  0  0  0
 10 36  1  0  0  0  0
 11 37  1  0  0  0  0
 11 10  2  0  0  0  0
 12 11  1  0  0  0  0
 13 12  2  0  0  0  0
 13  8  1  0  0  0  0
 14 41  1  0  0  0  0
 14  2  1  0  0  0  0
 15 14  1  0  0  0  0
 15 16  1  0  0  0  0
 16 17  1  0  0  0  0
 16 29  1  0  0  0  0
 17 45  1  0  0  0  0
 17 18  1  0  0  0  0
 18 19  1  0  0  0  0
 18 47  1  0  0  0  0
 19 48  1  0  0  0  0
 20 19  2  0  0  0  0
 20 21  1  0  0  0  0
 21 26  2  0  0  0  0
 22 23  2  0  0  0  0
 22 21  1  0  0  0  0
 23 24  1  0  0  0  0
 24 27  1  0  0  0  0
 24 25  2  0  0  0  0
 25 51  1  0  0  0  0
 26 25  1  0  0  0  0
 26 52  1  0  0  0  0
 28 20  1  0  0  0  0
 28 54  1  0  0  0  0
 29  1  1  0  0  0  0
 29 56  1  0  0  0  0
 32  5  1  0  0  0  0
 34  6  1  0  0  0  0
 38 12  1  0  0  0  0
 39 13  1  0  0  0  0
 40 14  1  0  0  0  0
 42 15  1  0  0  0  0
 43 15  1  0  0  0  0
 44 17  1  0  0  0  0
 46 18  1  0  0  0  0
 49 22  1  0  0  0  0
 50 23  1  0  0  0  0
 53 28  1  0  0  0  0
 55 28  1  0  0  0  0
 57 29  1  0  0  0  0
M  END
