omegacsd_CEJTIU_09.xyz
 OpenBabel12161914463D

 41 42  0  0  0  0  0  0  0  0999 V2000
   -5.3124    0.6010    0.9573 C   0  0  0  0  0  0  0  0  0  0  0  0
   -4.0397   -0.0693    1.0958 N   0  0  0  0  0  0  0  0  0  0  0  0
   -3.8043   -0.9620    2.2071 C   0  0  0  0  0  0  0  0  0  0  0  0
   -3.0802    0.0630    0.1131 C   0  0  0  0  0  0  0  0  0  0  0  0
   -3.2624    0.9288   -0.9822 C   0  0  0  0  0  0  0  0  0  0  0  0
   -2.2805    1.0652   -1.9485 C   0  0  0  0  0  0  0  0  0  0  0  0
   -1.0825    0.3547   -1.8789 C   0  0  0  0  0  0  0  0  0  0  0  0
   -0.9021   -0.5296   -0.8179 C   0  0  0  0  0  0  0  0  0  0  0  0
   -1.8729   -0.6620    0.1640 C   0  0  0  0  0  0  0  0  0  0  0  0
   -0.1465    0.5467   -2.9173 N   0  0  0  0  0  0  0  0  0  0  0  0
    1.2219    0.4187   -2.9359 C   0  0  0  0  0  0  0  0  0  0  0  0
    1.8200    0.1743   -3.9648 O   0  0  0  0  0  0  0  0  0  0  0  0
    1.9174    0.5680   -1.7274 N   0  0  0  0  0  0  0  0  0  0  0  0
    1.6831    1.5457   -0.7651 C   0  0  0  0  0  0  0  0  0  0  0  0
    0.7303    2.2933   -0.7932 O   0  0  0  0  0  0  0  0  0  0  0  0
    2.7611    1.6286    0.3118 C   0  0  0  0  0  0  0  0  0  0  0  0
    3.3673    0.3020    0.7019 C   0  0  0  0  0  0  0  0  0  0  0  0
    4.6517   -0.0485    0.2843 C   0  0  0  0  0  0  0  0  0  0  0  0
    5.1910   -1.2931    0.6042 C   0  0  0  0  0  0  0  0  0  0  0  0
    4.4476   -2.2006    1.3533 C   0  0  0  0  0  0  0  0  0  0  0  0
    3.1674   -1.8587    1.7808 C   0  0  0  0  0  0  0  0  0  0  0  0
    2.6326   -0.6150    1.4564 C   0  0  0  0  0  0  0  0  0  0  0  0
   -5.9380    0.3783    1.8269 H   0  0  0  0  0  0  0  0  0  0  0  0
   -5.1909    1.6910    0.8994 H   0  0  0  0  0  0  0  0  0  0  0  0
   -5.8524    0.2729    0.0574 H   0  0  0  0  0  0  0  0  0  0  0  0
   -3.6660   -2.0008    1.8749 H   0  0  0  0  0  0  0  0  0  0  0  0
   -4.6596   -0.9341    2.8883 H   0  0  0  0  0  0  0  0  0  0  0  0
   -2.9100   -0.6675    2.7728 H   0  0  0  0  0  0  0  0  0  0  0  0
   -4.1795    1.4978   -1.0880 H   0  0  0  0  0  0  0  0  0  0  0  0
   -2.4309    1.7484   -2.7826 H   0  0  0  0  0  0  0  0  0  0  0  0
   -0.0007   -1.1333   -0.7533 H   0  0  0  0  0  0  0  0  0  0  0  0
   -1.6850   -1.3470    0.9824 H   0  0  0  0  0  0  0  0  0  0  0  0
   -0.5207    0.5580   -3.8555 H   0  0  0  0  0  0  0  0  0  0  0  0
    2.8670    0.2266   -1.8033 H   0  0  0  0  0  0  0  0  0  0  0  0
    2.3010    2.1332    1.1652 H   0  0  0  0  0  0  0  0  0  0  0  0
    3.5473    2.2986   -0.0611 H   0  0  0  0  0  0  0  0  0  0  0  0
    5.2365    0.6626   -0.2970 H   0  0  0  0  0  0  0  0  0  0  0  0
    6.1906   -1.5529    0.2638 H   0  0  0  0  0  0  0  0  0  0  0  0
    4.8661   -3.1728    1.6036 H   0  0  0  0  0  0  0  0  0  0  0  0
    2.5853   -2.5654    2.3686 H   0  0  0  0  0  0  0  0  0  0  0  0
    1.6322   -0.3448    1.7893 H   0  0  0  0  0  0  0  0  0  0  0  0
  1  2  1  0  0  0  0
  1 23  1  0  0  0  0
  2  3  1  0  0  0  0
  3 28  1  0  0  0  0
  3 27  1  0  0  0  0
  4  9  1  0  0  0  0
  4  2  1  0  0  0  0
  5  4  2  0  0  0  0
  6  7  2  0  0  0  0
  6  5  1  0  0  0  0
  7  8  1  0  0  0  0
  8 31  1  0  0  0  0
  8  9  2  0  0  0  0
  9 32  1  0  0  0  0
 10  7  1  0  0  0  0
 11 10  1  0  0  0  0
 11 13  1  0  0  0  0
 12 11  2  0  0  0  0
 13 14  1  0  0  0  0
 14 16  1  0  0  0  0
 15 14  2  0  0  0  0
 16 17  1  0  0  0  0
 16 35  1  0  0  0  0
 17 22  2  0  0  0  0
 18 19  2  0  0  0  0
 18 17  1  0  0  0  0
 19 20  1  0  0  0  0
 20 39  1  0  0  0  0
 20 21  2  0  0  0  0
 21 40  1  0  0  0  0
 22 21  1  0  0  0  0
 22 41  1  0  0  0  0
 24  1  1  0  0  0  0
 25  1  1  0  0  0  0
 26  3  1  0  0  0  0
 29  5  1  0  0  0  0
 30  6  1  0  0  0  0
 33 10  1  0  0  0  0
 34 13  1  0  0  0  0
 36 16  1  0  0  0  0
 37 18  1  0  0  0  0
 38 19  1  0  0  0  0
M  END
