omegapdb_2f7p_08.xyz
 OpenBabel12161914463D

 34 35  0  0  1  0  0  0  0  0999 V2000
   -1.2000   -0.3040   -0.3622 C   0  0  1  0  0  0  0  0  0  0  0  0
    0.1303    0.2225   -0.1557 N   0  0  0  0  0  0  0  0  0  0  0  0
    1.1739   -0.7789   -0.3497 C   0  0  0  0  0  0  0  0  0  0  0  0
    2.5642   -0.1953   -0.2162 C   0  0  0  0  0  0  0  0  0  0  0  0
    3.6436   -1.0359    0.0582 C   0  0  0  0  0  0  0  0  0  0  0  0
    4.9350   -0.5282    0.1520 C   0  0  0  0  0  0  0  0  0  0  0  0
    5.1628    0.8334   -0.0253 C   0  0  0  0  0  0  0  0  0  0  0  0
    4.0910    1.6787   -0.2935 C   0  0  0  0  0  0  0  0  0  0  0  0
    2.8010    1.1671   -0.3898 C   0  0  0  0  0  0  0  0  0  0  0  0
   -1.7358   -1.2061    0.7824 C   0  0  1  0  0  0  0  0  0  0  0  0
   -1.2415   -0.7191    2.0110 O   0  0  0  0  0  0  0  0  0  0  0  0
   -3.2916   -1.0719    0.7233 C   0  0  1  0  0  0  0  0  0  0  0  0
   -3.7755   -0.7249    2.0051 O   0  0  0  0  0  0  0  0  0  0  0  0
   -3.5736    0.0381   -0.3225 C   0  0  1  0  0  0  0  0  0  0  0  0
   -4.6583    0.8192    0.1297 O   0  0  0  0  0  0  0  0  0  0  0  0
   -2.2545    0.8014   -0.4356 C   0  0  2  0  0  0  0  0  0  0  0  0
   -2.1993    1.8042   -1.9424 S   0  0  0  0  0  0  0  0  0  0  0  0
   -1.2229   -0.8688   -1.3076 H   0  0  0  0  0  0  0  0  0  0  0  0
    0.1707    0.5351    0.8149 H   0  0  0  0  0  0  0  0  0  0  0  0
    1.0790   -1.6346    0.3451 H   0  0  0  0  0  0  0  0  0  0  0  0
    1.0472   -1.1918   -1.3617 H   0  0  0  0  0  0  0  0  0  0  0  0
    3.4745   -2.1021    0.1985 H   0  0  0  0  0  0  0  0  0  0  0  0
    5.7665   -1.1960    0.3647 H   0  0  0  0  0  0  0  0  0  0  0  0
    6.1705    1.2342    0.0468 H   0  0  0  0  0  0  0  0  0  0  0  0
    4.2581    2.7449   -0.4267 H   0  0  0  0  0  0  0  0  0  0  0  0
    1.9606    1.8233   -0.5956 H   0  0  0  0  0  0  0  0  0  0  0  0
   -1.4294   -2.2551    0.6472 H   0  0  0  0  0  0  0  0  0  0  0  0
   -2.0361   -0.5733    2.5566 H   0  0  0  0  0  0  0  0  0  0  0  0
   -3.7531   -2.0158    0.4111 H   0  0  0  0  0  0  0  0  0  0  0  0
   -4.3874    0.0205    1.8778 H   0  0  0  0  0  0  0  0  0  0  0  0
   -3.8054   -0.4376   -1.2860 H   0  0  0  0  0  0  0  0  0  0  0  0
   -4.8054    1.5370   -0.5026 H   0  0  0  0  0  0  0  0  0  0  0  0
   -2.1568    1.4514    0.4402 H   0  0  0  0  0  0  0  0  0  0  0  0
   -0.9022    2.1283   -1.8359 H   0  0  0  0  0  0  0  0  0  0  0  0
  1 16  1  6  0  0  0
  1  2  1  0  0  0  0
  2 19  1  0  0  0  0
  3  4  1  0  0  0  0
  3  2  1  0  0  0  0
  3 20  1  0  0  0  0
  4  5  2  0  0  0  0
  5  6  1  0  0  0  0
  5 22  1  0  0  0  0
  6 23  1  0  0  0  0
  7 24  1  0  0  0  0
  7  6  2  0  0  0  0
  8  7  1  0  0  0  0
  9  8  2  0  0  0  0
  9  4  1  0  0  0  0
 10  1  1  6  0  0  0
 10 11  1  0  0  0  0
 11 28  1  0  0  0  0
 12 14  1  6  0  0  0
 12 10  1  0  0  0  0
 12 13  1  0  0  0  0
 14 16  1  6  0  0  0
 14 15  1  0  0  0  0
 16 33  1  1  0  0  0
 17 34  1  0  0  0  0
 17 16  1  0  0  0  0
 18  1  1  0  0  0  0
 21  3  1  0  0  0  0
 25  8  1  0  0  0  0
 26  9  1  0  0  0  0
 27 10  1  0  0  0  0
 29 12  1  0  0  0  0
 30 13  1  0  0  0  0
 31 14  1  0  0  0  0
 32 15  1  0  0  0  0
M  END
