omegacsd_CUHNEY10_11.xyz
 OpenBabel12161914463D

 44 47  0  0  1  0  0  0  0  0999 V2000
   -0.3923   -5.5282   -1.0139 Cl  0  0  0  0  0  0  0  0  0  0  0  0
   -0.9293   -3.8791   -0.9419 C   0  0  0  0  0  0  0  0  0  0  0  0
   -0.5618   -3.0616    0.1139 C   0  0  0  0  0  0  0  0  0  0  0  0
   -0.9447   -1.7881    0.2143 N   0  0  0  0  0  0  0  0  0  0  0  0
   -1.7504   -1.2928   -0.7249 C   0  0  0  0  0  0  0  0  0  0  0  0
   -2.1582    0.0441   -0.5413 N   0  0  0  0  0  0  0  0  0  0  0  0
   -3.2244    0.6820   -1.2006 C   0  0  0  0  0  0  0  0  0  0  0  0
   -3.8939    0.2244   -2.0984 O   0  0  0  0  0  0  0  0  0  0  0  0
   -3.3421    2.0103   -0.5532 C   0  0  0  0  0  0  0  0  0  0  0  0
   -4.2149    2.9747   -0.8391 N   0  0  0  0  0  0  0  0  0  0  0  0
   -4.0767    4.0568   -0.0858 C   0  0  0  0  0  0  0  0  0  0  0  0
   -3.1039    4.1699    0.9204 C   0  0  0  0  0  0  0  0  0  0  0  0
   -2.2390    3.1914    1.1897 N   0  0  0  0  0  0  0  0  0  0  0  0
   -2.3824    2.1191    0.4303 C   0  0  0  0  0  0  0  0  0  0  0  0
   -1.5475    0.8805    0.4885 C   0  0  2  0  0  0  0  0  0  0  0  0
   -0.1954    1.1412    0.1042 O   0  0  0  0  0  0  0  0  0  0  0  0
    0.7331    1.1220    1.0944 C   0  0  0  0  0  0  0  0  0  0  0  0
    0.4746    0.9775    2.2700 O   0  0  0  0  0  0  0  0  0  0  0  0
    1.9931    1.2840    0.5880 N   0  0  0  0  0  0  0  0  0  0  0  0
    3.0942    0.9332    1.4849 C   0  0  0  0  0  0  0  0  0  0  0  0
    4.0138   -0.0946    0.7970 C   0  0  0  0  0  0  0  0  0  0  0  0
    3.3096   -1.0577   -0.0341 N   0  0  0  0  0  0  0  0  0  0  0  0
    2.4771   -0.4462   -1.0727 C   0  0  0  0  0  0  0  0  0  0  0  0
    2.2575    1.0544   -0.8294 C   0  0  0  0  0  0  0  0  0  0  0  0
    2.6258   -2.1052    0.7004 C   0  0  0  0  0  0  0  0  0  0  0  0
   -2.1652   -2.0423   -1.8405 C   0  0  0  0  0  0  0  0  0  0  0  0
   -1.7386   -3.3537   -1.9420 C   0  0  0  0  0  0  0  0  0  0  0  0
    0.0618   -3.4495    0.9157 H   0  0  0  0  0  0  0  0  0  0  0  0
   -4.7659    4.8761   -0.2796 H   0  0  0  0  0  0  0  0  0  0  0  0
   -3.0278    5.0752    1.5172 H   0  0  0  0  0  0  0  0  0  0  0  0
   -1.5347    0.4046    1.4738 H   0  0  0  0  0  0  0  0  0  0  0  0
    3.6553    1.8322    1.7689 H   0  0  0  0  0  0  0  0  0  0  0  0
    2.6423    0.5182    2.3884 H   0  0  0  0  0  0  0  0  0  0  0  0
    4.5974   -0.6449    1.5431 H   0  0  0  0  0  0  0  0  0  0  0  0
    4.7444    0.4343    0.1698 H   0  0  0  0  0  0  0  0  0  0  0  0
    2.9232   -0.5987   -2.0669 H   0  0  0  0  0  0  0  0  0  0  0  0
    1.5048   -0.9531   -1.0834 H   0  0  0  0  0  0  0  0  0  0  0  0
    3.1532    1.6264   -1.0950 H   0  0  0  0  0  0  0  0  0  0  0  0
    1.4249    1.4373   -1.4178 H   0  0  0  0  0  0  0  0  0  0  0  0
    3.2764   -2.4913    1.4909 H   0  0  0  0  0  0  0  0  0  0  0  0
    1.6747   -1.7768    1.1572 H   0  0  0  0  0  0  0  0  0  0  0  0
    2.4017   -2.9345    0.0183 H   0  0  0  0  0  0  0  0  0  0  0  0
   -2.8106   -1.6026   -2.5870 H   0  0  0  0  0  0  0  0  0  0  0  0
   -2.0390   -3.9687   -2.7848 H   0  0  0  0  0  0  0  0  0  0  0  0
  1  2  1  0  0  0  0
  2  3  2  0  0  0  0
  3  4  1  0  0  0  0
  3 28  1  0  0  0  0
  5  6  1  0  0  0  0
  5  4  2  0  0  0  0
  6 15  1  0  0  0  0
  7  9  1  0  0  0  0
  7  6  1  0  0  0  0
  8  7  2  0  0  0  0
  9 14  1  0  0  0  0
 10  9  2  0  0  0  0
 10 11  1  0  0  0  0
 11 12  2  0  0  0  0
 12 13  1  0  0  0  0
 12 30  1  0  0  0  0
 14 15  1  0  0  0  0
 14 13  2  0  0  0  0
 15 31  1  1  0  0  0
 16 15  1  0  0  0  0
 16 17  1  0  0  0  0
 17 18  2  0  0  0  0
 19 17  1  0  0  0  0
 19 20  1  0  0  0  0
 20 32  1  0  0  0  0
 20 33  1  0  0  0  0
 21 20  1  0  0  0  0
 21 34  1  0  0  0  0
 22 25  1  0  0  0  0
 22 21  1  0  0  0  0
 23 24  1  0  0  0  0
 23 22  1  0  0  0  0
 24 19  1  0  0  0  0
 25 41  1  0  0  0  0
 25 40  1  0  0  0  0
 26  5  1  0  0  0  0
 27 26  2  0  0  0  0
 27  2  1  0  0  0  0
 29 11  1  0  0  0  0
 35 21  1  0  0  0  0
 36 23  1  0  0  0  0
 37 23  1  0  0  0  0
 38 24  1  0  0  0  0
 39 24  1  0  0  0  0
 42 25  1  0  0  0  0
 43 26  1  0  0  0  0
 44 27  1  0  0  0  0
M  END
