omegacsd_CDBMPI10_09.xyz
 OpenBabel12161914463D

 46 48  0  0  1  0  0  0  0  0999 V2000
    2.9984    1.9828    0.9674 O   0  0  0  0  0  0  0  0  0  0  0  0
    2.6827    0.9581    0.3788 C   0  0  0  0  0  0  0  0  0  0  0  0
    1.5020    0.8709   -0.3365 N   0  0  0  0  0  0  0  0  0  0  0  0
    0.6744   -0.3471   -0.3718 C   0  0  1  0  0  0  0  0  0  0  0  0
   -0.5063   -0.2094    0.6240 C   0  0  0  0  0  0  0  0  0  0  0  0
   -1.2513    1.0335    0.4198 N   0  0  0  0  0  0  0  0  0  0  0  0
   -0.3669    2.1995    0.5639 C   0  0  1  0  0  0  0  0  0  0  0  0
    0.7492    2.1183   -0.4894 C   0  0  0  0  0  0  0  0  0  0  0  0
   -1.0823    3.5433    0.6013 C   0  0  0  0  0  0  0  0  0  0  0  0
   -2.3097    1.0719   -0.4775 C   0  0  0  0  0  0  0  0  0  0  0  0
   -2.3810    1.8873   -1.3876 O   0  0  0  0  0  0  0  0  0  0  0  0
   -3.3628    0.0103   -0.3056 C   0  0  0  0  0  0  0  0  0  0  0  0
   -3.6478   -0.5551    0.9380 C   0  0  0  0  0  0  0  0  0  0  0  0
   -4.6488   -1.5146    1.0578 C   0  0  0  0  0  0  0  0  0  0  0  0
   -5.3697   -1.9154   -0.0637 C   0  0  0  0  0  0  0  0  0  0  0  0
   -5.0954   -1.3448   -1.3046 C   0  0  0  0  0  0  0  0  0  0  0  0
   -4.1041   -0.3777   -1.4238 C   0  0  0  0  0  0  0  0  0  0  0  0
    0.1879   -0.6461   -1.7877 C   0  0  0  0  0  0  0  0  0  0  0  0
    3.5780   -0.2501    0.4250 C   0  0  0  0  0  0  0  0  0  0  0  0
    4.2959   -0.4713    1.6015 C   0  0  0  0  0  0  0  0  0  0  0  0
    5.1516   -1.5618    1.7058 C   0  0  0  0  0  0  0  0  0  0  0  0
    5.3244   -2.4189    0.6212 C   0  0  0  0  0  0  0  0  0  0  0  0
    4.6426   -2.1785   -0.5693 C   0  0  0  0  0  0  0  0  0  0  0  0
    3.7711   -1.0974   -0.6662 C   0  0  0  0  0  0  0  0  0  0  0  0
    1.2932   -1.1797   -0.0233 H   0  0  0  0  0  0  0  0  0  0  0  0
   -1.1777   -1.0645    0.5162 H   0  0  0  0  0  0  0  0  0  0  0  0
   -0.1233   -0.2073    1.6524 H   0  0  0  0  0  0  0  0  0  0  0  0
    0.1216    2.0480    1.5367 H   0  0  0  0  0  0  0  0  0  0  0  0
    0.3060    2.1708   -1.4921 H   0  0  0  0  0  0  0  0  0  0  0  0
    1.4584    2.9392   -0.3668 H   0  0  0  0  0  0  0  0  0  0  0  0
   -1.5449    3.7794   -0.3577 H   0  0  0  0  0  0  0  0  0  0  0  0
   -0.3610    4.3294    0.8532 H   0  0  0  0  0  0  0  0  0  0  0  0
   -1.8590    3.5385    1.3720 H   0  0  0  0  0  0  0  0  0  0  0  0
   -3.0800   -0.2436    1.8110 H   0  0  0  0  0  0  0  0  0  0  0  0
   -4.8550   -1.9577    2.0276 H   0  0  0  0  0  0  0  0  0  0  0  0
   -6.1491   -2.6670    0.0307 H   0  0  0  0  0  0  0  0  0  0  0  0
   -5.6604   -1.6475   -2.1827 H   0  0  0  0  0  0  0  0  0  0  0  0
   -3.8912    0.0901   -2.3816 H   0  0  0  0  0  0  0  0  0  0  0  0
   -0.4007   -1.5702   -1.8019 H   0  0  0  0  0  0  0  0  0  0  0  0
    1.0351   -0.7778   -2.4674 H   0  0  0  0  0  0  0  0  0  0  0  0
   -0.4377    0.1605   -2.1836 H   0  0  0  0  0  0  0  0  0  0  0  0
    4.1730    0.2253    2.4264 H   0  0  0  0  0  0  0  0  0  0  0  0
    5.6925   -1.7385    2.6330 H   0  0  0  0  0  0  0  0  0  0  0  0
    5.9981   -3.2684    0.7001 H   0  0  0  0  0  0  0  0  0  0  0  0
    4.7804   -2.8374   -1.4220 H   0  0  0  0  0  0  0  0  0  0  0  0
    3.2498   -0.9086   -1.6011 H   0  0  0  0  0  0  0  0  0  0  0  0
  2 19  1  0  0  0  0
  2  1  2  0  0  0  0
  3  2  1  0  0  0  0
  4  3  1  0  0  0  0
  4 25  1  1  0  0  0
  4  5  1  0  0  0  0
  5 27  1  0  0  0  0
  6  7  1  0  0  0  0
  6  5  1  0  0  0  0
  7  9  1  0  0  0  0
  7 28  1  1  0  0  0
  8 30  1  0  0  0  0
  8  3  1  0  0  0  0
  8  7  1  0  0  0  0
  9 32  1  0  0  0  0
  9 33  1  0  0  0  0
 10 12  1  0  0  0  0
 10  6  1  0  0  0  0
 11 10  2  0  0  0  0
 12 13  2  0  0  0  0
 13 14  1  0  0  0  0
 13 34  1  0  0  0  0
 14 35  1  0  0  0  0
 15 36  1  0  0  0  0
 15 14  2  0  0  0  0
 16 15  1  0  0  0  0
 17 16  2  0  0  0  0
 17 12  1  0  0  0  0
 18  4  1  0  0  0  0
 19 20  2  0  0  0  0
 20 21  1  0  0  0  0
 20 42  1  0  0  0  0
 21 43  1  0  0  0  0
 22 44  1  0  0  0  0
 22 21  2  0  0  0  0
 23 22  1  0  0  0  0
 24 23  2  0  0  0  0
 24 19  1  0  0  0  0
 26  5  1  0  0  0  0
 29  8  1  0  0  0  0
 31  9  1  0  0  0  0
 37 16  1  0  0  0  0
 38 17  1  0  0  0  0
 39 18  1  0  0  0  0
 40 18  1  0  0  0  0
 41 18  1  0  0  0  0
 45 23  1  0  0  0  0
 46 24  1  0  0  0  0
M  END
