omegapdb_1xom_12.xyz
 OpenBabel12161914463D

 50 52  0  0  1  0  0  0  0  0999 V2000
    7.0800    0.5356    0.1669 O   0  0  0  0  0  0  0  0  0  0  0  0
    6.1629   -0.0495   -0.6322 C   0  0  0  0  0  0  0  0  0  0  0  0
    6.3556   -0.2127   -1.8138 O   0  0  0  0  0  0  0  0  0  0  0  0
    4.9087   -0.4354    0.1290 C   0  0  1  0  0  0  0  0  0  0  0  0
    4.2470    0.8423    0.7009 C   0  0  0  0  0  0  0  0  0  0  0  0
    2.7477    0.6426    0.8984 C   0  0  0  0  0  0  0  0  0  0  0  0
    2.0166    0.4267   -0.4673 C   0  0  2  0  0  0  0  0  0  0  0  0
    2.9531   -0.3142   -1.4655 C   0  0  0  0  0  0  0  0  0  0  0  0
    3.9390   -1.2396   -0.7535 C   0  0  0  0  0  0  0  0  0  0  0  0
    1.7449    1.7644   -1.0560 C   0  0  0  0  0  0  0  0  0  0  0  0
    1.5398    2.8107   -1.5073 N   0  0  0  0  0  0  0  0  0  0  0  0
    0.6677   -0.2827   -0.2280 C   0  0  0  0  0  0  0  0  0  0  0  0
    0.4623   -1.6320   -0.4919 C   0  0  0  0  0  0  0  0  0  0  0  0
   -0.7652   -2.2390   -0.2249 C   0  0  0  0  0  0  0  0  0  0  0  0
   -1.8152   -1.5111    0.3244 C   0  0  0  0  0  0  0  0  0  0  0  0
   -3.0539   -2.0020    0.5803 O   0  0  0  0  0  0  0  0  0  0  0  0
   -3.2683   -3.3747    0.3346 C   0  0  0  0  0  0  0  0  0  0  0  0
   -1.6073   -0.1519    0.6254 C   0  0  0  0  0  0  0  0  0  0  0  0
   -0.3842    0.4392    0.3413 C   0  0  0  0  0  0  0  0  0  0  0  0
   -2.6209    0.5418    1.2248 O   0  0  0  0  0  0  0  0  0  0  0  0
   -3.0879    1.6852    0.5083 C   0  0  0  0  0  0  0  0  0  0  0  0
   -4.1773    2.3092    1.3672 C   0  0  0  0  0  0  0  0  0  0  0  0
   -5.3416    1.3226    1.2007 C   0  0  0  0  0  0  0  0  0  0  0  0
   -5.2136    0.7732   -0.2434 C   0  0  0  0  0  0  0  0  0  0  0  0
   -3.8287    1.2426   -0.7552 C   0  0  0  0  0  0  0  0  0  0  0  0
    7.8364    0.7492   -0.4045 H   0  0  0  0  0  0  0  0  0  0  0  0
    5.2374   -1.0665    0.9637 H   0  0  0  0  0  0  0  0  0  0  0  0
    4.7332    1.1144    1.6409 H   0  0  0  0  0  0  0  0  0  0  0  0
    4.4051    1.6805    0.0122 H   0  0  0  0  0  0  0  0  0  0  0  0
    2.3020    1.4991    1.4152 H   0  0  0  0  0  0  0  0  0  0  0  0
    2.5681   -0.2303    1.5357 H   0  0  0  0  0  0  0  0  0  0  0  0
    2.3469   -0.8563   -2.1982 H   0  0  0  0  0  0  0  0  0  0  0  0
    3.5265    0.4244   -2.0353 H   0  0  0  0  0  0  0  0  0  0  0  0
    4.5088   -1.8193   -1.4844 H   0  0  0  0  0  0  0  0  0  0  0  0
    3.3862   -1.9487   -0.1251 H   0  0  0  0  0  0  0  0  0  0  0  0
    1.2500   -2.2480   -0.9189 H   0  0  0  0  0  0  0  0  0  0  0  0
   -0.8950   -3.2881   -0.4670 H   0  0  0  0  0  0  0  0  0  0  0  0
   -2.5879   -3.9977    0.9300 H   0  0  0  0  0  0  0  0  0  0  0  0
   -4.2985   -3.5807    0.6284 H   0  0  0  0  0  0  0  0  0  0  0  0
   -3.1338   -3.6168   -0.7283 H   0  0  0  0  0  0  0  0  0  0  0  0
   -0.2515    1.4904    0.5829 H   0  0  0  0  0  0  0  0  0  0  0  0
   -2.2532    2.3676    0.3028 H   0  0  0  0  0  0  0  0  0  0  0  0
   -4.4374    3.2963    0.9619 H   0  0  0  0  0  0  0  0  0  0  0  0
   -3.8564    2.4415    2.4043 H   0  0  0  0  0  0  0  0  0  0  0  0
   -6.3104    1.7967    1.3870 H   0  0  0  0  0  0  0  0  0  0  0  0
   -5.2370    0.5052    1.9202 H   0  0  0  0  0  0  0  0  0  0  0  0
   -5.2807   -0.3178   -0.2462 H   0  0  0  0  0  0  0  0  0  0  0  0
   -6.0104    1.1497   -0.8918 H   0  0  0  0  0  0  0  0  0  0  0  0
   -3.9295    2.1011   -1.4289 H   0  0  0  0  0  0  0  0  0  0  0  0
   -3.2799    0.4632   -1.2941 H   0  0  0  0  0  0  0  0  0  0  0  0
  2  4  1  0  0  0  0
  2  1  1  0  0  0  0
  3  2  2  0  0  0  0
  4  5  1  0  0  0  0
  4 27  1  1  0  0  0
  5  6  1  0  0  0  0
  5 28  1  0  0  0  0
  6 30  1  0  0  0  0
  6 31  1  0  0  0  0
  7 10  1  6  0  0  0
  7 12  1  0  0  0  0
  7  6  1  0  0  0  0
  8  9  1  0  0  0  0
  8  7  1  0  0  0  0
  9 35  1  0  0  0  0
  9  4  1  0  0  0  0
 11 10  3  0  0  0  0
 12 19  1  0  0  0  0
 13 12  2  0  0  0  0
 13 14  1  0  0  0  0
 14 15  2  0  0  0  0
 15 16  1  0  0  0  0
 15 18  1  0  0  0  0
 17 16  1  0  0  0  0
 17 39  1  0  0  0  0
 17 38  1  0  0  0  0
 18 20  1  0  0  0  0
 19 41  1  0  0  0  0
 19 18  2  0  0  0  0
 21 20  1  0  0  0  0
 21 22  1  0  0  0  0
 22 44  1  0  0  0  0
 23 22  1  0  0  0  0
 23 45  1  0  0  0  0
 23 46  1  0  0  0  0
 24 23  1  0  0  0  0
 25 24  1  0  0  0  0
 25 21  1  0  0  0  0
 26  1  1  0  0  0  0
 29  5  1  0  0  0  0
 32  8  1  0  0  0  0
 33  8  1  0  0  0  0
 34  9  1  0  0  0  0
 36 13  1  0  0  0  0
 37 14  1  0  0  0  0
 40 17  1  0  0  0  0
 42 21  1  0  0  0  0
 43 22  1  0  0  0  0
 47 24  1  0  0  0  0
 48 24  1  0  0  0  0
 49 25  1  0  0  0  0
 50 25  1  0  0  0  0
M  END
