omegapdb_1qxw_01.xyz
 OpenBabel12161914463D

 36 36  0  0  1  0  0  0  0  0999 V2000
    5.3636   -0.1810    0.8055 C   0  0  0  0  0  0  0  0  0  0  0  0
    4.8160   -0.3658   -0.5819 C   0  0  0  0  0  0  0  0  0  0  0  0
    4.2437    0.6868    0.3195 C   0  0  0  0  0  0  0  0  0  0  0  0
    2.9419    0.4309    0.8651 N   0  0  0  0  0  0  0  0  0  0  0  0
    1.8641    0.6676   -0.0902 C   0  0  0  0  0  0  0  0  0  0  0  0
    0.5718    0.1555    0.5422 C   0  0  0  0  0  0  0  0  0  0  0  0
   -0.5859    0.1725   -0.4619 C   0  0  1  0  0  0  0  0  0  0  0  0
   -0.2420   -0.7261   -1.5567 N   0  0  0  0  0  0  0  0  0  0  0  0
   -1.9181   -0.1411    0.2334 C   0  0  0  0  0  0  0  0  0  0  0  0
   -3.1318    0.0773   -0.6706 C   0  0  0  0  0  0  0  0  0  0  0  0
   -4.4525   -0.2362    0.0294 C   0  0  0  0  0  0  0  0  0  0  0  0
   -5.6628   -0.0096   -0.8715 C   0  0  0  0  0  0  0  0  0  0  0  0
    0.7581   -1.1741    0.9824 O   0  0  0  0  0  0  0  0  0  0  0  0
    0.2987    0.9895    1.6598 O   0  0  0  0  0  0  0  0  0  0  0  0
    5.1007   -0.9338    1.5414 H   0  0  0  0  0  0  0  0  0  0  0  0
    6.3481    0.2603    0.9267 H   0  0  0  0  0  0  0  0  0  0  0  0
    4.1951   -1.2399   -0.7573 H   0  0  0  0  0  0  0  0  0  0  0  0
    5.4180   -0.0493   -1.4277 H   0  0  0  0  0  0  0  0  0  0  0  0
    4.4880    1.7231    0.0734 H   0  0  0  0  0  0  0  0  0  0  0  0
    2.7911    1.0130    1.6862 H   0  0  0  0  0  0  0  0  0  0  0  0
    2.0809    0.0986   -0.9977 H   0  0  0  0  0  0  0  0  0  0  0  0
    1.7483    1.7261   -0.3643 H   0  0  0  0  0  0  0  0  0  0  0  0
   -0.6420    1.1937   -0.8671 H   0  0  0  0  0  0  0  0  0  0  0  0
   -1.0287   -0.8178   -2.1926 H   0  0  0  0  0  0  0  0  0  0  0  0
   -0.0591   -1.6486   -1.1669 H   0  0  0  0  0  0  0  0  0  0  0  0
   -1.9022   -1.1803    0.5947 H   0  0  0  0  0  0  0  0  0  0  0  0
   -2.0100    0.4983    1.1199 H   0  0  0  0  0  0  0  0  0  0  0  0
   -3.0506   -0.5501   -1.5709 H   0  0  0  0  0  0  0  0  0  0  0  0
   -3.1443    1.1189   -1.0248 H   0  0  0  0  0  0  0  0  0  0  0  0
   -4.4351   -1.2799    0.3715 H   0  0  0  0  0  0  0  0  0  0  0  0
   -4.5411    0.3840    0.9317 H   0  0  0  0  0  0  0  0  0  0  0  0
   -5.6092   -0.6401   -1.7667 H   0  0  0  0  0  0  0  0  0  0  0  0
   -6.5992   -0.2417   -0.3540 H   0  0  0  0  0  0  0  0  0  0  0  0
   -5.7124    1.0338   -1.2040 H   0  0  0  0  0  0  0  0  0  0  0  0
    1.6816   -1.1925    1.2987 H   0  0  0  0  0  0  0  0  0  0  0  0
    0.0175    0.3778    2.3524 H   0  0  0  0  0  0  0  0  0  0  0  0
  1 16  1  0  0  0  0
  1 15  1  0  0  0  0
  2  3  1  0  0  0  0
  2  1  1  0  0  0  0
  3  1  1  0  0  0  0
  3  4  1  0  0  0  0
  4 20  1  0  0  0  0
  5  6  1  0  0  0  0
  5  4  1  0  0  0  0
  6 13  1  0  0  0  0
  6 14  1  0  0  0  0
  7 23  1  6  0  0  0
  7  9  1  0  0  0  0
  7  6  1  0  0  0  0
  8 25  1  0  0  0  0
  8  7  1  0  0  0  0
  9 26  1  0  0  0  0
  9 27  1  0  0  0  0
 10 11  1  0  0  0  0
 10  9  1  0  0  0  0
 11 30  1  0  0  0  0
 11 31  1  0  0  0  0
 12 33  1  0  0  0  0
 12 11  1  0  0  0  0
 13 35  1  0  0  0  0
 14 36  1  0  0  0  0
 17  2  1  0  0  0  0
 18  2  1  0  0  0  0
 19  3  1  0  0  0  0
 21  5  1  0  0  0  0
 22  5  1  0  0  0  0
 24  8  1  0  0  0  0
 28 10  1  0  0  0  0
 29 10  1  0  0  0  0
 32 12  1  0  0  0  0
 34 12  1  0  0  0  0
M  END
