omegacsd_SEYMIS_09.xyz
 OpenBabel12161914463D

 45 47  0  0  0  0  0  0  0  0999 V2000
   -2.1611   -2.3231   -0.4980 O   0  0  0  0  0  0  0  0  0  0  0  0
   -2.9078   -1.6385   -1.4241 N   0  0  0  0  0  0  0  0  0  0  0  0
   -3.0866   -0.4332   -0.9466 C   0  0  0  0  0  0  0  0  0  0  0  0
   -2.4029   -0.2907    0.3170 C   0  0  0  0  0  0  0  0  0  0  0  0
   -2.2642    0.8671    1.2297 C   0  0  0  0  0  0  0  0  0  0  0  0
   -3.1952    1.5791    1.5713 O   0  0  0  0  0  0  0  0  0  0  0  0
   -1.0115    1.1125    1.7726 N   0  0  0  0  0  0  0  0  0  0  0  0
    0.2637    0.8165    1.2495 C   0  0  0  0  0  0  0  0  0  0  0  0
    0.6190    0.5625   -0.0559 C   0  0  0  0  0  0  0  0  0  0  0  0
    1.9524    0.2801   -0.1233 N   0  0  0  0  0  0  0  0  0  0  0  0
    2.6397   -0.0203   -1.3667 C   0  0  0  0  0  0  0  0  0  0  0  0
    2.4649    0.3398    1.1591 C   0  0  0  0  0  0  0  0  0  0  0  0
    1.4349    0.6858    2.0194 C   0  0  0  0  0  0  0  0  0  0  0  0
    3.8426    0.0306    1.5757 C   0  0  0  0  0  0  0  0  0  0  0  0
    4.2114    0.1477    2.7251 O   0  0  0  0  0  0  0  0  0  0  0  0
    4.6429   -0.3986    0.5782 O   0  0  0  0  0  0  0  0  0  0  0  0
    5.9855   -0.7601    0.9687 C   0  0  0  0  0  0  0  0  0  0  0  0
    6.0375   -2.1363    1.6065 C   0  0  0  0  0  0  0  0  0  0  0  0
   -1.8623   -1.5319    0.5349 C   0  0  0  0  0  0  0  0  0  0  0  0
   -1.0296   -2.1350    1.6130 C   0  0  0  0  0  0  0  0  0  0  0  0
   -3.8630    0.5378   -1.7500 C   0  0  0  0  0  0  0  0  0  0  0  0
   -3.9102    0.3827   -3.1375 C   0  0  0  0  0  0  0  0  0  0  0  0
   -4.6186    1.2839   -3.9221 C   0  0  0  0  0  0  0  0  0  0  0  0
   -5.3008    2.3406   -3.3268 C   0  0  0  0  0  0  0  0  0  0  0  0
   -5.2761    2.4852   -1.9435 C   0  0  0  0  0  0  0  0  0  0  0  0
   -4.5663    1.5861   -1.1553 C   0  0  0  0  0  0  0  0  0  0  0  0
   -1.0432    1.8082    2.5056 H   0  0  0  0  0  0  0  0  0  0  0  0
   -0.0002    0.5395   -0.9431 H   0  0  0  0  0  0  0  0  0  0  0  0
    2.9680   -1.0618   -1.3971 H   0  0  0  0  0  0  0  0  0  0  0  0
    3.5080    0.6280   -1.4915 H   0  0  0  0  0  0  0  0  0  0  0  0
    1.9374    0.1557   -2.1853 H   0  0  0  0  0  0  0  0  0  0  0  0
    1.5359    0.8151    3.0906 H   0  0  0  0  0  0  0  0  0  0  0  0
    6.3741    0.0031    1.6483 H   0  0  0  0  0  0  0  0  0  0  0  0
    6.5517   -0.7311    0.0349 H   0  0  0  0  0  0  0  0  0  0  0  0
    7.0796   -2.4070    1.8077 H   0  0  0  0  0  0  0  0  0  0  0  0
    5.6033   -2.8891    0.9416 H   0  0  0  0  0  0  0  0  0  0  0  0
    5.4913   -2.1415    2.5532 H   0  0  0  0  0  0  0  0  0  0  0  0
    0.0325   -2.0385    1.3618 H   0  0  0  0  0  0  0  0  0  0  0  0
   -1.2549   -3.1973    1.7295 H   0  0  0  0  0  0  0  0  0  0  0  0
   -1.1850   -1.6101    2.5576 H   0  0  0  0  0  0  0  0  0  0  0  0
   -3.3893   -0.4537   -3.5945 H   0  0  0  0  0  0  0  0  0  0  0  0
   -4.6395    1.1591   -5.0020 H   0  0  0  0  0  0  0  0  0  0  0  0
   -5.8525    3.0482   -3.9404 H   0  0  0  0  0  0  0  0  0  0  0  0
   -5.8105    3.3054   -1.4717 H   0  0  0  0  0  0  0  0  0  0  0  0
   -4.5447    1.6968   -0.0767 H   0  0  0  0  0  0  0  0  0  0  0  0
  1 19  1  0  0  0  0
  2  3  2  0  0  0  0
  2  1  1  0  0  0  0
  3  4  1  0  0  0  0
  4 19  2  0  0  0  0
  4  5  1  0  0  0  0
  5  6  2  0  0  0  0
  5  7  1  0  0  0  0
  7 27  1  0  0  0  0
  8  7  1  0  0  0  0
  8 13  1  0  0  0  0
  9  8  2  0  0  0  0
 10  9  1  0  0  0  0
 10 12  1  0  0  0  0
 11 10  1  0  0  0  0
 12 14  1  0  0  0  0
 12 13  2  0  0  0  0
 13 32  1  0  0  0  0
 14 15  2  0  0  0  0
 16 17  1  0  0  0  0
 16 14  1  0  0  0  0
 17 18  1  0  0  0  0
 17 33  1  0  0  0  0
 18 35  1  0  0  0  0
 18 37  1  0  0  0  0
 19 20  1  0  0  0  0
 20 39  1  0  0  0  0
 20 40  1  0  0  0  0
 21 26  1  0  0  0  0
 21  3  1  0  0  0  0
 22 21  2  0  0  0  0
 23 24  2  0  0  0  0
 23 22  1  0  0  0  0
 24 25  1  0  0  0  0
 25 44  1  0  0  0  0
 25 26  2  0  0  0  0
 26 45  1  0  0  0  0
 28  9  1  0  0  0  0
 29 11  1  0  0  0  0
 30 11  1  0  0  0  0
 31 11  1  0  0  0  0
 34 17  1  0  0  0  0
 36 18  1  0  0  0  0
 38 20  1  0  0  0  0
 41 22  1  0  0  0  0
 42 23  1  0  0  0  0
 43 24  1  0  0  0  0
M  END
