omegacsd_GALSEM_09.xyz
 OpenBabel12161914463D

 39 40  0  0  0  0  0  0  0  0999 V2000
    1.0358    0.8541    1.6742 S   0  0  0  0  0  0  0  0  0  0  0  0
    1.1773    2.2964    1.6642 O   0  0  0  0  0  0  0  0  0  0  0  0
   -0.0615    0.2254    2.4103 O   0  0  0  0  0  0  0  0  0  0  0  0
    2.4060    0.1405    2.3250 N   0  0  0  0  0  0  0  0  0  0  0  0
    3.7129    0.6038    2.2269 C   0  0  0  0  0  0  0  0  0  0  0  0
    4.0662    1.4408    1.4239 O   0  0  0  0  0  0  0  0  0  0  0  0
    4.6555   -0.0454    3.2199 C   0  0  0  0  0  0  0  0  0  0  0  0
    6.0999    0.3812    2.9849 C   0  0  0  0  0  0  0  0  0  0  0  0
    0.9914    0.2599   -0.0028 C   0  0  0  0  0  0  0  0  0  0  0  0
   -0.2068   -0.1915   -0.6001 C   0  0  0  0  0  0  0  0  0  0  0  0
   -1.4043   -0.1400    0.0717 N   0  0  0  0  0  0  0  0  0  0  0  0
   -2.6815   -0.2719   -0.4789 C   0  0  0  0  0  0  0  0  0  0  0  0
   -3.0083    0.2185   -1.7463 C   0  0  0  0  0  0  0  0  0  0  0  0
   -4.2873    0.0169   -2.2535 C   0  0  0  0  0  0  0  0  0  0  0  0
   -5.2616   -0.6343   -1.5060 C   0  0  0  0  0  0  0  0  0  0  0  0
   -4.9474   -1.0768   -0.2243 C   0  0  0  0  0  0  0  0  0  0  0  0
   -3.6725   -0.8899    0.2923 C   0  0  0  0  0  0  0  0  0  0  0  0
   -4.6260    0.4983   -3.6352 C   0  0  0  0  0  0  0  0  0  0  0  0
   -5.5637    1.4656   -3.6042 F   0  0  0  0  0  0  0  0  0  0  0  0
   -5.1280   -0.4973   -4.3931 F   0  0  0  0  0  0  0  0  0  0  0  0
   -3.5573    0.9955   -4.2817 F   0  0  0  0  0  0  0  0  0  0  0  0
   -0.0943   -0.7162   -1.8933 C   0  0  0  0  0  0  0  0  0  0  0  0
    1.1323   -0.6766   -2.5390 C   0  0  0  0  0  0  0  0  0  0  0  0
    2.2462   -0.1621   -2.0133 N   0  0  0  0  0  0  0  0  0  0  0  0
    2.1565    0.3008   -0.7679 C   0  0  0  0  0  0  0  0  0  0  0  0
    2.1920   -0.5838    3.0008 H   0  0  0  0  0  0  0  0  0  0  0  0
    4.5538   -1.1358    3.1427 H   0  0  0  0  0  0  0  0  0  0  0  0
    4.3333    0.2283    4.2343 H   0  0  0  0  0  0  0  0  0  0  0  0
    6.1903    1.4692    3.0451 H   0  0  0  0  0  0  0  0  0  0  0  0
    6.7664   -0.0709    3.7260 H   0  0  0  0  0  0  0  0  0  0  0  0
    6.4342    0.0819    1.9873 H   0  0  0  0  0  0  0  0  0  0  0  0
   -1.3209   -0.0592    1.0846 H   0  0  0  0  0  0  0  0  0  0  0  0
   -2.2762    0.7694   -2.3290 H   0  0  0  0  0  0  0  0  0  0  0  0
   -6.2522   -0.7838   -1.9226 H   0  0  0  0  0  0  0  0  0  0  0  0
   -5.7021   -1.5732    0.3775 H   0  0  0  0  0  0  0  0  0  0  0  0
   -3.4290   -1.2382    1.2955 H   0  0  0  0  0  0  0  0  0  0  0  0
   -0.9524   -1.1629   -2.3862 H   0  0  0  0  0  0  0  0  0  0  0  0
    1.2180   -1.0689   -3.5502 H   0  0  0  0  0  0  0  0  0  0  0  0
    3.0652    0.7325   -0.3502 H   0  0  0  0  0  0  0  0  0  0  0  0
  1  4  1  0  0  0  0
  1  3  2  0  0  0  0
  2  1  2  0  0  0  0
  4 26  1  0  0  0  0
  5  4  1  0  0  0  0
  5  7  1  0  0  0  0
  6  5  2  0  0  0  0
  7 28  1  0  0  0  0
  8 29  1  0  0  0  0
  8  7  1  0  0  0  0
  8 30  1  0  0  0  0
  9  1  1  0  0  0  0
 10  9  1  0  0  0  0
 10 11  1  0  0  0  0
 11 32  1  0  0  0  0
 12 11  1  0  0  0  0
 12 17  2  0  0  0  0
 13 12  1  0  0  0  0
 14 13  2  0  0  0  0
 14 15  1  0  0  0  0
 15 16  2  0  0  0  0
 16 17  1  0  0  0  0
 16 35  1  0  0  0  0
 17 36  1  0  0  0  0
 18 19  1  0  0  0  0
 18 14  1  0  0  0  0
 20 18  1  0  0  0  0
 21 18  1  0  0  0  0
 22 10  2  0  0  0  0
 23 24  2  0  0  0  0
 23 22  1  0  0  0  0
 24 25  1  0  0  0  0
 25 39  1  0  0  0  0
 25  9  2  0  0  0  0
 27  7  1  0  0  0  0
 31  8  1  0  0  0  0
 33 13  1  0  0  0  0
 34 15  1  0  0  0  0
 37 22  1  0  0  0  0
 38 23  1  0  0  0  0
M  END
