omegacsd_SPIRIL_19.xyz
 OpenBabel12161914463D

 57 60  0  0  1  0  0  0  0  0999 V2000
   -1.9077   -1.4359   -1.1028 C   0  0  0  0  0  0  0  0  0  0  0  0
   -2.9541   -1.8181   -0.0303 C   0  0  2  0  0  0  0  0  0  0  0  0
   -3.4499   -3.2218   -0.4191 C   0  0  0  0  0  0  0  0  0  0  0  0
   -2.7770   -4.2339   -0.4411 O   0  0  0  0  0  0  0  0  0  0  0  0
   -4.7688   -3.1202   -0.7384 N   0  0  0  0  0  0  0  0  0  0  0  0
   -5.2480   -1.7599   -0.7754 C   0  0  0  0  0  0  0  0  0  0  0  0
   -4.2029   -1.0342   -0.0666 N   0  0  0  0  0  0  0  0  0  0  0  0
   -4.3154    0.3475    0.0817 C   0  0  0  0  0  0  0  0  0  0  0  0
   -5.4459    1.0208   -0.4171 C   0  0  0  0  0  0  0  0  0  0  0  0
   -5.6081    2.3893   -0.2410 C   0  0  0  0  0  0  0  0  0  0  0  0
   -4.6562    3.1375    0.4383 C   0  0  0  0  0  0  0  0  0  0  0  0
   -3.5350    2.4865    0.9367 C   0  0  0  0  0  0  0  0  0  0  0  0
   -3.3633    1.1158    0.7689 C   0  0  0  0  0  0  0  0  0  0  0  0
   -2.3195   -1.9064    1.3763 C   0  0  0  0  0  0  0  0  0  0  0  0
   -0.8015   -1.7362    1.3107 C   0  0  0  0  0  0  0  0  0  0  0  0
   -0.4601   -0.4733    0.6749 N   0  0  0  0  0  0  0  0  0  0  0  0
    0.8911   -0.0042    0.9272 C   0  0  0  0  0  0  0  0  0  0  0  0
    2.0114   -0.9498    0.4603 C   0  0  0  0  0  0  0  0  0  0  0  0
    3.3800   -0.3289    0.5543 C   0  0  0  0  0  0  0  0  0  0  0  0
    3.9362    0.4525   -0.3749 C   0  0  0  0  0  0  0  0  0  0  0  0
    5.3038    1.0053   -0.1705 C   0  0  0  0  0  0  0  0  0  0  0  0
    6.2169    1.0657   -1.2272 C   0  0  0  0  0  0  0  0  0  0  0  0
    7.5005    1.5624   -1.0446 C   0  0  0  0  0  0  0  0  0  0  0  0
    7.8600    2.0241    0.2111 C   0  0  0  0  0  0  0  0  0  0  0  0
    6.9789    1.9972    1.2819 C   0  0  0  0  0  0  0  0  0  0  0  0
    5.7077    1.4754    1.0855 C   0  0  0  0  0  0  0  0  0  0  0  0
    9.0975    2.5130    0.3979 F   0  0  0  0  0  0  0  0  0  0  0  0
    3.2518    0.7933   -1.6818 C   0  0  0  0  0  0  0  0  0  0  0  0
   -0.9171   -0.3430   -0.7063 C   0  0  0  0  0  0  0  0  0  0  0  0
   -2.4251   -1.1586   -2.0256 H   0  0  0  0  0  0  0  0  0  0  0  0
   -1.3454   -2.3523   -1.3136 H   0  0  0  0  0  0  0  0  0  0  0  0
   -5.2289   -3.8868   -1.1995 H   0  0  0  0  0  0  0  0  0  0  0  0
   -5.3627   -1.3842   -1.8083 H   0  0  0  0  0  0  0  0  0  0  0  0
   -6.2032   -1.6630   -0.2462 H   0  0  0  0  0  0  0  0  0  0  0  0
   -6.2163    0.4740   -0.9471 H   0  0  0  0  0  0  0  0  0  0  0  0
   -6.4988    2.8721   -0.6382 H   0  0  0  0  0  0  0  0  0  0  0  0
   -4.7853    4.2066    0.5799 H   0  0  0  0  0  0  0  0  0  0  0  0
   -2.7763    3.0486    1.4745 H   0  0  0  0  0  0  0  0  0  0  0  0
   -2.4628    0.6677    1.1638 H   0  0  0  0  0  0  0  0  0  0  0  0
   -2.7650   -1.1536    2.0350 H   0  0  0  0  0  0  0  0  0  0  0  0
   -2.5452   -2.8804    1.8246 H   0  0  0  0  0  0  0  0  0  0  0  0
   -0.3671   -2.6148    0.7936 H   0  0  0  0  0  0  0  0  0  0  0  0
   -0.3953   -1.7265    2.3286 H   0  0  0  0  0  0  0  0  0  0  0  0
    1.0142    0.9788    0.4574 H   0  0  0  0  0  0  0  0  0  0  0  0
    0.9845    0.1649    2.0075 H   0  0  0  0  0  0  0  0  0  0  0  0
    1.9839   -1.8629    1.0649 H   0  0  0  0  0  0  0  0  0  0  0  0
    1.8019   -1.2527   -0.5758 H   0  0  0  0  0  0  0  0  0  0  0  0
    3.9449   -0.5412    1.4636 H   0  0  0  0  0  0  0  0  0  0  0  0
    5.9221    0.7029   -2.2084 H   0  0  0  0  0  0  0  0  0  0  0  0
    8.2189    1.5988   -1.8566 H   0  0  0  0  0  0  0  0  0  0  0  0
    7.2990    2.3679    2.2504 H   0  0  0  0  0  0  0  0  0  0  0  0
    5.0028    1.4528    1.9132 H   0  0  0  0  0  0  0  0  0  0  0  0
    3.6074    0.1538   -2.4996 H   0  0  0  0  0  0  0  0  0  0  0  0
    2.1664    0.6710   -1.6107 H   0  0  0  0  0  0  0  0  0  0  0  0
    3.4597    1.8311   -1.9587 H   0  0  0  0  0  0  0  0  0  0  0  0
   -0.0680   -0.3844   -1.4054 H   0  0  0  0  0  0  0  0  0  0  0  0
   -1.3667    0.6497   -0.8500 H   0  0  0  0  0  0  0  0  0  0  0  0
  1 29  1  0  0  0  0
  1  2  1  0  0  0  0
  2  3  1  6  0  0  0
  2 14  1  0  0  0  0
  4  3  2  0  0  0  0
  5  3  1  0  0  0  0
  6  5  1  0  0  0  0
  6 34  1  0  0  0  0
  6  7  1  0  0  0  0
  7  2  1  0  0  0  0
  7  8  1  0  0  0  0
  8 13  2  0  0  0  0
  9 10  2  0  0  0  0
  9  8  1  0  0  0  0
 10 11  1  0  0  0  0
 11 37  1  0  0  0  0
 11 12  2  0  0  0  0
 12 38  1  0  0  0  0
 13 12  1  0  0  0  0
 13 39  1  0  0  0  0
 14 41  1  0  0  0  0
 14 40  1  0  0  0  0
 15 14  1  0  0  0  0
 15 43  1  0  0  0  0
 16 17  1  0  0  0  0
 16 15  1  0  0  0  0
 17 45  1  0  0  0  0
 18 19  1  0  0  0  0
 18 17  1  0  0  0  0
 18 46  1  0  0  0  0
 19 48  1  0  0  0  0
 20 21  1  0  0  0  0
 20 19  2  0  0  0  0
 21 26  2  0  0  0  0
 22 23  2  0  0  0  0
 22 21  1  0  0  0  0
 23 24  1  0  0  0  0
 24 27  1  0  0  0  0
 24 25  2  0  0  0  0
 25 51  1  0  0  0  0
 26 25  1  0  0  0  0
 26 52  1  0  0  0  0
 28 54  1  0  0  0  0
 28 20  1  0  0  0  0
 29 16  1  0  0  0  0
 30  1  1  0  0  0  0
 31  1  1  0  0  0  0
 32  5  1  0  0  0  0
 33  6  1  0  0  0  0
 35  9  1  0  0  0  0
 36 10  1  0  0  0  0
 42 15  1  0  0  0  0
 44 17  1  0  0  0  0
 47 18  1  0  0  0  0
 49 22  1  0  0  0  0
 50 23  1  0  0  0  0
 53 28  1  0  0  0  0
 55 28  1  0  0  0  0
 56 29  1  0  0  0  0
 57 29  1  0  0  0  0
M  END
