omegapdb_2byh_02.xyz
 OpenBabel12161914463D

 40 42  0  0  0  0  0  0  0  0999 V2000
    5.8987    1.4775    1.8060 O   0  0  0  0  0  0  0  0  0  0  0  0
    4.7772    1.9317    1.9309 C   0  0  0  0  0  0  0  0  0  0  0  0
    4.5639    3.3311    2.4661 C   0  0  0  0  0  0  0  0  0  0  0  0
    3.5852    1.1127    1.5520 C   0  0  0  0  0  0  0  0  0  0  0  0
    2.2735    1.5743    1.6645 C   0  0  0  0  0  0  0  0  0  0  0  0
    1.2092    0.7713    1.2791 C   0  0  0  0  0  0  0  0  0  0  0  0
    1.4362   -0.5100    0.7660 C   0  0  0  0  0  0  0  0  0  0  0  0
    2.7467   -0.9862    0.6688 C   0  0  0  0  0  0  0  0  0  0  0  0
    3.7987   -0.1759    1.0579 C   0  0  0  0  0  0  0  0  0  0  0  0
    0.3261   -1.2767    0.3668 N   0  0  0  0  0  0  0  0  0  0  0  0
    0.3170   -2.4301   -0.3803 C   0  0  0  0  0  0  0  0  0  0  0  0
    1.3197   -3.0737   -0.6544 O   0  0  0  0  0  0  0  0  0  0  0  0
   -1.0171   -2.9012   -0.8110 C   0  0  0  0  0  0  0  0  0  0  0  0
   -1.3060   -4.2614   -1.0508 C   0  0  0  0  0  0  0  0  0  0  0  0
   -2.5864   -4.4622   -1.2923 N   0  0  0  0  0  0  0  0  0  0  0  0
   -3.1325   -3.2411   -1.2398 N   0  0  0  0  0  0  0  0  0  0  0  0
   -2.2442   -2.2490   -0.9921 C   0  0  0  0  0  0  0  0  0  0  0  0
   -2.5738   -0.8195   -1.0989 C   0  0  0  0  0  0  0  0  0  0  0  0
   -1.6178    0.0935   -1.5461 C   0  0  0  0  0  0  0  0  0  0  0  0
   -1.8880    1.4514   -1.6001 C   0  0  0  0  0  0  0  0  0  0  0  0
   -0.6577    2.5750   -2.1236 Cl  0  0  0  0  0  0  0  0  0  0  0  0
   -3.1414    1.9464   -1.2284 C   0  0  0  0  0  0  0  0  0  0  0  0
   -3.4563    3.2572   -1.2492 O   0  0  0  0  0  0  0  0  0  0  0  0
   -4.1238    1.0401   -0.8393 C   0  0  0  0  0  0  0  0  0  0  0  0
   -3.8521   -0.3177   -0.8005 C   0  0  0  0  0  0  0  0  0  0  0  0
   -4.8238   -1.2175   -0.4702 O   0  0  0  0  0  0  0  0  0  0  0  0
    3.9515    3.3129    3.3742 H   0  0  0  0  0  0  0  0  0  0  0  0
    5.5381    3.7676    2.6920 H   0  0  0  0  0  0  0  0  0  0  0  0
    4.0464    3.9540    1.7281 H   0  0  0  0  0  0  0  0  0  0  0  0
    2.0742    2.5676    2.0571 H   0  0  0  0  0  0  0  0  0  0  0  0
    0.1949    1.1488    1.3798 H   0  0  0  0  0  0  0  0  0  0  0  0
    2.9223   -1.9801    0.2817 H   0  0  0  0  0  0  0  0  0  0  0  0
    4.8207   -0.5357    0.9779 H   0  0  0  0  0  0  0  0  0  0  0  0
   -0.5768   -0.8712    0.5696 H   0  0  0  0  0  0  0  0  0  0  0  0
   -0.6061   -5.0871   -1.0383 H   0  0  0  0  0  0  0  0  0  0  0  0
   -4.1329   -3.1243   -1.3012 H   0  0  0  0  0  0  0  0  0  0  0  0
   -0.6452   -0.2533   -1.8712 H   0  0  0  0  0  0  0  0  0  0  0  0
   -2.6824    3.7638   -1.5382 H   0  0  0  0  0  0  0  0  0  0  0  0
   -5.1077    1.4294   -0.5826 H   0  0  0  0  0  0  0  0  0  0  0  0
   -5.6282   -0.7322   -0.2439 H   0  0  0  0  0  0  0  0  0  0  0  0
  1  2  2  0  0  0  0
  2  3  1  0  0  0  0
  3 28  1  0  0  0  0
  3 27  1  0  0  0  0
  4  5  1  0  0  0  0
  4  2  1  0  0  0  0
  5 30  1  0  0  0  0
  6 31  1  0  0  0  0
  6  5  2  0  0  0  0
  7  6  1  0  0  0  0
  8  7  2  0  0  0  0
  8  9  1  0  0  0  0
  9  4  2  0  0  0  0
 10 34  1  0  0  0  0
 10  7  1  0  0  0  0
 11 10  1  0  0  0  0
 12 11  2  0  0  0  0
 13 11  1  0  0  0  0
 14 35  1  0  0  0  0
 14 13  1  0  0  0  0
 15 16  1  0  0  0  0
 15 14  2  0  0  0  0
 16 17  1  0  0  0  0
 17 13  2  0  0  0  0
 18 17  1  0  0  0  0
 18 25  2  0  0  0  0
 19 18  1  0  0  0  0
 20 19  2  0  0  0  0
 20 22  1  0  0  0  0
 21 20  1  0  0  0  0
 22 24  2  0  0  0  0
 23 22  1  0  0  0  0
 24 25  1  0  0  0  0
 24 39  1  0  0  0  0
 25 26  1  0  0  0  0
 26 40  1  0  0  0  0
 29  3  1  0  0  0  0
 32  8  1  0  0  0  0
 33  9  1  0  0  0  0
 36 16  1  0  0  0  0
 37 19  1  0  0  0  0
 38 23  1  0  0  0  0
M  END
