omegapdb_1qxw_10.xyz
 OpenBabel12161914463D

 36 36  0  0  1  0  0  0  0  0999 V2000
    4.2001   -0.2398   -0.5246 C   0  0  0  0  0  0  0  0  0  0  0  0
    4.9535   -0.3148    0.7719 C   0  0  0  0  0  0  0  0  0  0  0  0
    3.6709    0.4589    0.6979 C   0  0  0  0  0  0  0  0  0  0  0  0
    2.5161   -0.1013    1.3685 N   0  0  0  0  0  0  0  0  0  0  0  0
    1.2530    0.5589    1.0311 C   0  0  0  0  0  0  0  0  0  0  0  0
    0.7980    0.0922   -0.3598 C   0  0  0  0  0  0  0  0  0  0  0  0
   -0.7269    0.2581   -0.5627 C   0  0  1  0  0  0  0  0  0  0  0  0
   -1.0942    0.0781   -1.9624 N   0  0  0  0  0  0  0  0  0  0  0  0
   -1.5469   -0.7031    0.3020 C   0  0  0  0  0  0  0  0  0  0  0  0
   -2.9711   -0.2155    0.6023 C   0  0  0  0  0  0  0  0  0  0  0  0
   -3.8656   -0.0026   -0.6175 C   0  0  0  0  0  0  0  0  0  0  0  0
   -5.2942    0.3637   -0.2247 C   0  0  0  0  0  0  0  0  0  0  0  0
    1.4577    0.9015   -1.3255 O   0  0  0  0  0  0  0  0  0  0  0  0
    1.1643   -1.2574   -0.5520 O   0  0  0  0  0  0  0  0  0  0  0  0
    3.6733   -1.1273   -0.8653 H   0  0  0  0  0  0  0  0  0  0  0  0
    4.6104    0.3856   -1.3132 H   0  0  0  0  0  0  0  0  0  0  0  0
    5.8839    0.2390    0.8612 H   0  0  0  0  0  0  0  0  0  0  0  0
    4.9370   -1.2565    1.3131 H   0  0  0  0  0  0  0  0  0  0  0  0
    3.7490    1.5489    0.7023 H   0  0  0  0  0  0  0  0  0  0  0  0
    2.6684   -0.0522    2.3712 H   0  0  0  0  0  0  0  0  0  0  0  0
    0.5199    0.2801    1.7947 H   0  0  0  0  0  0  0  0  0  0  0  0
    1.3394    1.6508    1.0241 H   0  0  0  0  0  0  0  0  0  0  0  0
   -0.9745    1.2952   -0.2867 H   0  0  0  0  0  0  0  0  0  0  0  0
   -0.7923   -0.8502   -2.2535 H   0  0  0  0  0  0  0  0  0  0  0  0
   -0.5631    0.7346   -2.5282 H   0  0  0  0  0  0  0  0  0  0  0  0
   -1.5840   -1.6697   -0.2193 H   0  0  0  0  0  0  0  0  0  0  0  0
   -1.0413   -0.8982    1.2551 H   0  0  0  0  0  0  0  0  0  0  0  0
   -2.9175    0.7222    1.1760 H   0  0  0  0  0  0  0  0  0  0  0  0
   -3.4473   -0.9493    1.2667 H   0  0  0  0  0  0  0  0  0  0  0  0
   -3.8726   -0.9224   -1.2171 H   0  0  0  0  0  0  0  0  0  0  0  0
   -3.4424    0.7785   -1.2574 H   0  0  0  0  0  0  0  0  0  0  0  0
   -5.7495   -0.4226    0.3897 H   0  0  0  0  0  0  0  0  0  0  0  0
   -5.9244    0.5068   -1.1083 H   0  0  0  0  0  0  0  0  0  0  0  0
   -5.3189    1.2937    0.3558 H   0  0  0  0  0  0  0  0  0  0  0  0
    1.9444    0.2782   -1.8778 H   0  0  0  0  0  0  0  0  0  0  0  0
    1.7876   -1.4424    0.1798 H   0  0  0  0  0  0  0  0  0  0  0  0
  1  3  1  0  0  0  0
  1  2  1  0  0  0  0
  2 17  1  0  0  0  0
  2 18  1  0  0  0  0
  3 19  1  0  0  0  0
  3  2  1  0  0  0  0
  3  4  1  0  0  0  0
  4 20  1  0  0  0  0
  5  4  1  0  0  0  0
  5 21  1  0  0  0  0
  6  5  1  0  0  0  0
  7  6  1  0  0  0  0
  7 23  1  1  0  0  0
  7  9  1  0  0  0  0
  8  7  1  0  0  0  0
  9 10  1  0  0  0  0
  9 27  1  0  0  0  0
 10 28  1  0  0  0  0
 10 29  1  0  0  0  0
 11 12  1  0  0  0  0
 11 10  1  0  0  0  0
 12 34  1  0  0  0  0
 12 32  1  0  0  0  0
 13  6  1  0  0  0  0
 14  6  1  0  0  0  0
 14 36  1  0  0  0  0
 15  1  1  0  0  0  0
 16  1  1  0  0  0  0
 22  5  1  0  0  0  0
 24  8  1  0  0  0  0
 25  8  1  0  0  0  0
 26  9  1  0  0  0  0
 30 11  1  0  0  0  0
 31 11  1  0  0  0  0
 33 12  1  0  0  0  0
 35 13  1  0  0  0  0
M  END
