omegapdb_1xom_21.xyz
 OpenBabel12161914463D

 50 52  0  0  1  0  0  0  0  0999 V2000
    5.3522    3.1662   -0.1359 O   0  0  0  0  0  0  0  0  0  0  0  0
    5.3077    1.8248   -0.3273 C   0  0  0  0  0  0  0  0  0  0  0  0
    6.0707    1.3080   -1.0978 O   0  0  0  0  0  0  0  0  0  0  0  0
    4.2216    1.0832    0.4492 C   0  0  1  0  0  0  0  0  0  0  0  0
    2.8316    1.4063   -0.1548 C   0  0  0  0  0  0  0  0  0  0  0  0
    2.4546    0.3732   -1.2153 C   0  0  0  0  0  0  0  0  0  0  0  0
    2.2183   -1.0264   -0.5832 C   0  0  2  0  0  0  0  0  0  0  0  0
    3.1997   -1.2280    0.6214 C   0  0  0  0  0  0  0  0  0  0  0  0
    4.4914   -0.4304    0.4539 C   0  0  0  0  0  0  0  0  0  0  0  0
    2.5439   -2.0317   -1.6263 C   0  0  0  0  0  0  0  0  0  0  0  0
    2.8044   -2.8155   -2.4376 N   0  0  0  0  0  0  0  0  0  0  0  0
    0.7695   -1.2761   -0.1118 C   0  0  0  0  0  0  0  0  0  0  0  0
    0.4194   -2.5633    0.2837 C   0  0  0  0  0  0  0  0  0  0  0  0
   -0.8552   -2.8544    0.7671 C   0  0  0  0  0  0  0  0  0  0  0  0
   -1.8147   -1.8565    0.8525 C   0  0  0  0  0  0  0  0  0  0  0  0
   -3.0901   -2.0341    1.2881 O   0  0  0  0  0  0  0  0  0  0  0  0
   -3.4539   -3.3260    1.7232 C   0  0  0  0  0  0  0  0  0  0  0  0
   -1.4772   -0.5487    0.4529 C   0  0  0  0  0  0  0  0  0  0  0  0
   -0.1964   -0.2692   -0.0046 C   0  0  0  0  0  0  0  0  0  0  0  0
   -2.4002    0.4519    0.5741 O   0  0  0  0  0  0  0  0  0  0  0  0
   -3.4486    0.4695   -0.4048 C   0  0  0  0  0  0  0  0  0  0  0  0
   -3.0851    1.4786   -1.4880 C   0  0  0  0  0  0  0  0  0  0  0  0
   -3.3421    2.8524   -0.8254 C   0  0  0  0  0  0  0  0  0  0  0  0
   -4.2806    2.5748    0.3791 C   0  0  0  0  0  0  0  0  0  0  0  0
   -4.6580    1.0878    0.2770 C   0  0  0  0  0  0  0  0  0  0  0  0
    4.6942    3.4305    0.5219 H   0  0  0  0  0  0  0  0  0  0  0  0
    4.2410    1.4628    1.4806 H   0  0  0  0  0  0  0  0  0  0  0  0
    2.8292    2.4158   -0.5806 H   0  0  0  0  0  0  0  0  0  0  0  0
    2.0844    1.3973    0.6481 H   0  0  0  0  0  0  0  0  0  0  0  0
    3.2713    0.3025   -1.9431 H   0  0  0  0  0  0  0  0  0  0  0  0
    1.5687    0.6743   -1.7820 H   0  0  0  0  0  0  0  0  0  0  0  0
    2.6868   -0.9103    1.5364 H   0  0  0  0  0  0  0  0  0  0  0  0
    3.4175   -2.2946    0.7441 H   0  0  0  0  0  0  0  0  0  0  0  0
    5.1931   -0.6750    1.2571 H   0  0  0  0  0  0  0  0  0  0  0  0
    4.9841   -0.7048   -0.4826 H   0  0  0  0  0  0  0  0  0  0  0  0
    1.1457   -3.3716    0.2167 H   0  0  0  0  0  0  0  0  0  0  0  0
   -1.0897   -3.8696    1.0630 H   0  0  0  0  0  0  0  0  0  0  0  0
   -4.4958   -3.2567    2.0384 H   0  0  0  0  0  0  0  0  0  0  0  0
   -2.8369   -3.6518    2.5711 H   0  0  0  0  0  0  0  0  0  0  0  0
   -3.3656   -4.0608    0.9120 H   0  0  0  0  0  0  0  0  0  0  0  0
    0.0272    0.7611   -0.2697 H   0  0  0  0  0  0  0  0  0  0  0  0
   -3.6294   -0.5411   -0.7875 H   0  0  0  0  0  0  0  0  0  0  0  0
   -2.0539    1.3459   -1.8327 H   0  0  0  0  0  0  0  0  0  0  0  0
   -3.7470    1.3334   -2.3506 H   0  0  0  0  0  0  0  0  0  0  0  0
   -2.4076    3.3031   -0.4806 H   0  0  0  0  0  0  0  0  0  0  0  0
   -3.7886    3.5515   -1.5396 H   0  0  0  0  0  0  0  0  0  0  0  0
   -3.7503    2.7649    1.3155 H   0  0  0  0  0  0  0  0  0  0  0  0
   -5.1661    3.2185    0.3753 H   0  0  0  0  0  0  0  0  0  0  0  0
   -4.8505    0.6100    1.2419 H   0  0  0  0  0  0  0  0  0  0  0  0
   -5.5446    0.9483   -0.3568 H   0  0  0  0  0  0  0  0  0  0  0  0
  1 26  1  0  0  0  0
  2  1  1  0  0  0  0
  2  4  1  0  0  0  0
  3  2  2  0  0  0  0
  4  9  1  0  0  0  0
  4 27  1  1  0  0  0
  5  4  1  0  0  0  0
  5 29  1  0  0  0  0
  6  7  1  0  0  0  0
  6  5  1  0  0  0  0
  7 10  1  6  0  0  0
  7 12  1  0  0  0  0
  7  8  1  0  0  0  0
  8 33  1  0  0  0  0
  8 32  1  0  0  0  0
  9  8  1  0  0  0  0
  9 34  1  0  0  0  0
 11 10  3  0  0  0  0
 12 19  2  0  0  0  0
 12 13  1  0  0  0  0
 13 14  2  0  0  0  0
 14 15  1  0  0  0  0
 14 37  1  0  0  0  0
 15 16  1  0  0  0  0
 16 17  1  0  0  0  0
 17 38  1  0  0  0  0
 17 39  1  0  0  0  0
 18 20  1  0  0  0  0
 18 15  2  0  0  0  0
 19 18  1  0  0  0  0
 21 25  1  0  0  0  0
 21 20  1  0  0  0  0
 22 23  1  0  0  0  0
 22 21  1  0  0  0  0
 23 45  1  0  0  0  0
 23 24  1  0  0  0  0
 24 47  1  0  0  0  0
 25 24  1  0  0  0  0
 25 49  1  0  0  0  0
 28  5  1  0  0  0  0
 30  6  1  0  0  0  0
 31  6  1  0  0  0  0
 35  9  1  0  0  0  0
 36 13  1  0  0  0  0
 40 17  1  0  0  0  0
 41 19  1  0  0  0  0
 42 21  1  0  0  0  0
 43 22  1  0  0  0  0
 44 22  1  0  0  0  0
 46 23  1  0  0  0  0
 48 24  1  0  0  0  0
 50 25  1  0  0  0  0
M  END
