omegacsd_SEYMIS_00.xyz
 OpenBabel12161914463D

 45 47  0  0  0  0  0  0  0  0999 V2000
   -5.4711   -1.6213    0.6039 O   0  0  0  0  0  0  0  0  0  0  0  0
   -5.2090   -0.4182   -0.0139 N   0  0  0  0  0  0  0  0  0  0  0  0
   -3.9121   -0.3466   -0.1280 C   0  0  0  0  0  0  0  0  0  0  0  0
   -3.2797   -1.5065    0.4482 C   0  0  0  0  0  0  0  0  0  0  0  0
   -1.8523   -1.8234    0.6658 C   0  0  0  0  0  0  0  0  0  0  0  0
   -1.4600   -2.9445    0.9649 O   0  0  0  0  0  0  0  0  0  0  0  0
   -1.0033   -0.7608    0.5271 N   0  0  0  0  0  0  0  0  0  0  0  0
    0.3945   -0.8038    0.6486 C   0  0  0  0  0  0  0  0  0  0  0  0
    1.1854   -1.8190    1.1429 C   0  0  0  0  0  0  0  0  0  0  0  0
    2.4904   -1.4225    1.0889 N   0  0  0  0  0  0  0  0  0  0  0  0
    3.6082   -2.2160    1.5582 C   0  0  0  0  0  0  0  0  0  0  0  0
    2.5450   -0.1543    0.5510 C   0  0  0  0  0  0  0  0  0  0  0  0
    1.2501    0.2528    0.2745 C   0  0  0  0  0  0  0  0  0  0  0  0
    3.8116    0.5561    0.3489 C   0  0  0  0  0  0  0  0  0  0  0  0
    4.9156    0.1280    0.6222 O   0  0  0  0  0  0  0  0  0  0  0  0
    3.6017    1.7732   -0.1843 O   0  0  0  0  0  0  0  0  0  0  0  0
    4.7765    2.5829   -0.3850 C   0  0  0  0  0  0  0  0  0  0  0  0
    5.5428    2.1730   -1.6288 C   0  0  0  0  0  0  0  0  0  0  0  0
   -4.3341   -2.2721    0.8648 C   0  0  0  0  0  0  0  0  0  0  0  0
   -4.4390   -3.5983    1.5261 C   0  0  0  0  0  0  0  0  0  0  0  0
   -3.3119    0.7993   -0.8556 C   0  0  0  0  0  0  0  0  0  0  0  0
   -2.6658    0.5838   -2.0751 C   0  0  0  0  0  0  0  0  0  0  0  0
   -2.0619    1.6432   -2.7422 C   0  0  0  0  0  0  0  0  0  0  0  0
   -2.1140    2.9260   -2.2029 C   0  0  0  0  0  0  0  0  0  0  0  0
   -2.7834    3.1471   -1.0015 C   0  0  0  0  0  0  0  0  0  0  0  0
   -3.3931    2.0894   -0.3340 C   0  0  0  0  0  0  0  0  0  0  0  0
   -1.4000    0.1366    0.2930 H   0  0  0  0  0  0  0  0  0  0  0  0
    0.8951   -2.7893    1.5169 H   0  0  0  0  0  0  0  0  0  0  0  0
    4.3415   -2.3451    0.7625 H   0  0  0  0  0  0  0  0  0  0  0  0
    4.1010   -1.7242    2.3983 H   0  0  0  0  0  0  0  0  0  0  0  0
    3.2255   -3.1892    1.8740 H   0  0  0  0  0  0  0  0  0  0  0  0
    0.9758    1.2080   -0.1531 H   0  0  0  0  0  0  0  0  0  0  0  0
    5.4071    2.5213    0.5068 H   0  0  0  0  0  0  0  0  0  0  0  0
    4.3848    3.5980   -0.4756 H   0  0  0  0  0  0  0  0  0  0  0  0
    4.8963    2.1994   -2.5109 H   0  0  0  0  0  0  0  0  0  0  0  0
    6.3757    2.8658   -1.7853 H   0  0  0  0  0  0  0  0  0  0  0  0
    5.9512    1.1662   -1.5169 H   0  0  0  0  0  0  0  0  0  0  0  0
   -5.0518   -4.2773    0.9260 H   0  0  0  0  0  0  0  0  0  0  0  0
   -4.9048   -3.4971    2.5110 H   0  0  0  0  0  0  0  0  0  0  0  0
   -3.4419   -4.0203    1.6428 H   0  0  0  0  0  0  0  0  0  0  0  0
   -2.6281   -0.4228   -2.4829 H   0  0  0  0  0  0  0  0  0  0  0  0
   -1.5506    1.4648   -3.6841 H   0  0  0  0  0  0  0  0  0  0  0  0
   -1.6426    3.7555   -2.7234 H   0  0  0  0  0  0  0  0  0  0  0  0
   -2.8359    4.1483   -0.5817 H   0  0  0  0  0  0  0  0  0  0  0  0
   -3.9295    2.2535    0.5975 H   0  0  0  0  0  0  0  0  0  0  0  0
  1 19  1  0  0  0  0
  2  1  1  0  0  0  0
  3  2  2  0  0  0  0
  3  4  1  0  0  0  0
  4  5  1  0  0  0  0
  4 19  2  0  0  0  0
  5  6  2  0  0  0  0
  7  8  1  0  0  0  0
  7  5  1  0  0  0  0
  8  9  2  0  0  0  0
  9 28  1  0  0  0  0
 10  9  1  0  0  0  0
 10 11  1  0  0  0  0
 11 31  1  0  0  0  0
 11 30  1  0  0  0  0
 12 10  1  0  0  0  0
 13 12  2  0  0  0  0
 13  8  1  0  0  0  0
 14 12  1  0  0  0  0
 14 15  2  0  0  0  0
 16 14  1  0  0  0  0
 17 16  1  0  0  0  0
 17 33  1  0  0  0  0
 18 37  1  0  0  0  0
 18 17  1  0  0  0  0
 19 20  1  0  0  0  0
 20 40  1  0  0  0  0
 20 39  1  0  0  0  0
 21 26  1  0  0  0  0
 21  3  1  0  0  0  0
 22 21  2  0  0  0  0
 23 24  2  0  0  0  0
 23 22  1  0  0  0  0
 24 25  1  0  0  0  0
 25 44  1  0  0  0  0
 25 26  2  0  0  0  0
 26 45  1  0  0  0  0
 27  7  1  0  0  0  0
 29 11  1  0  0  0  0
 32 13  1  0  0  0  0
 34 17  1  0  0  0  0
 35 18  1  0  0  0  0
 36 18  1  0  0  0  0
 38 20  1  0  0  0  0
 41 22  1  0  0  0  0
 42 23  1  0  0  0  0
 43 24  1  0  0  0  0
M  END
