omegapdb_1qxw_12.xyz
 OpenBabel12161914463D

 36 36  0  0  1  0  0  0  0  0999 V2000
    5.2540    0.6631    0.8830 C   0  0  0  0  0  0  0  0  0  0  0  0
    4.9074    0.1685   -0.4957 C   0  0  0  0  0  0  0  0  0  0  0  0
    4.0992   -0.2732    0.6974 C   0  0  0  0  0  0  0  0  0  0  0  0
    2.7542    0.1726    0.9272 N   0  0  0  0  0  0  0  0  0  0  0  0
    1.8279   -0.0424   -0.1770 C   0  0  0  0  0  0  0  0  0  0  0  0
    0.4210    0.1763    0.3736 C   0  0  0  0  0  0  0  0  0  0  0  0
   -0.6614   -0.1604   -0.6685 C   0  0  1  0  0  0  0  0  0  0  0  0
   -0.6729   -1.5710   -1.0396 N   0  0  0  0  0  0  0  0  0  0  0  0
   -2.0481    0.2562   -0.1676 C   0  0  0  0  0  0  0  0  0  0  0  0
   -3.1131    0.0950   -1.2544 C   0  0  0  0  0  0  0  0  0  0  0  0
   -4.5287    0.4692   -0.8063 C   0  0  0  0  0  0  0  0  0  0  0  0
   -5.1268   -0.4796    0.2328 C   0  0  0  0  0  0  0  0  0  0  0  0
    0.2395   -0.6600    1.4981 O   0  0  0  0  0  0  0  0  0  0  0  0
    0.3422    1.5364    0.7729 O   0  0  0  0  0  0  0  0  0  0  0  0
    6.1515    0.2849    1.3644 H   0  0  0  0  0  0  0  0  0  0  0  0
    5.0315    1.7012    1.1185 H   0  0  0  0  0  0  0  0  0  0  0  0
    5.5600   -0.5627   -0.9628 H   0  0  0  0  0  0  0  0  0  0  0  0
    4.4526    0.8728   -1.1882 H   0  0  0  0  0  0  0  0  0  0  0  0
    4.2648   -1.3006    1.0182 H   0  0  0  0  0  0  0  0  0  0  0  0
    2.7212    1.1494    1.2047 H   0  0  0  0  0  0  0  0  0  0  0  0
    2.0078    0.6350   -1.0240 H   0  0  0  0  0  0  0  0  0  0  0  0
    1.9322   -1.0709   -0.5378 H   0  0  0  0  0  0  0  0  0  0  0  0
   -0.4395    0.4286   -1.5693 H   0  0  0  0  0  0  0  0  0  0  0  0
    0.0845   -1.7901   -1.6791 H   0  0  0  0  0  0  0  0  0  0  0  0
   -0.5405   -2.1312   -0.2004 H   0  0  0  0  0  0  0  0  0  0  0  0
   -2.3005   -0.3517    0.7116 H   0  0  0  0  0  0  0  0  0  0  0  0
   -2.0237    1.3014    0.1665 H   0  0  0  0  0  0  0  0  0  0  0  0
   -3.0958   -0.9410   -1.6140 H   0  0  0  0  0  0  0  0  0  0  0  0
   -2.8395    0.7280   -2.1107 H   0  0  0  0  0  0  0  0  0  0  0  0
   -5.1821    0.4882   -1.6884 H   0  0  0  0  0  0  0  0  0  0  0  0
   -4.5266    1.4951   -0.4106 H   0  0  0  0  0  0  0  0  0  0  0  0
   -5.1453   -1.5101   -0.1419 H   0  0  0  0  0  0  0  0  0  0  0  0
   -6.1554   -0.1951    0.4782 H   0  0  0  0  0  0  0  0  0  0  0  0
   -4.5534   -0.4761    1.1665 H   0  0  0  0  0  0  0  0  0  0  0  0
    1.1013   -0.6270    1.9566 H   0  0  0  0  0  0  0  0  0  0  0  0
   -0.1990    1.5212    1.5734 H   0  0  0  0  0  0  0  0  0  0  0  0
  1 16  1  0  0  0  0
  1 15  1  0  0  0  0
  2  3  1  0  0  0  0
  2  1  1  0  0  0  0
  3  1  1  0  0  0  0
  3  4  1  0  0  0  0
  3 19  1  0  0  0  0
  4 20  1  0  0  0  0
  5  6  1  0  0  0  0
  5  4  1  0  0  0  0
  6 14  1  0  0  0  0
  6 13  1  0  0  0  0
  7 23  1  6  0  0  0
  7  9  1  0  0  0  0
  7  6  1  0  0  0  0
  8  7  1  0  0  0  0
  8 25  1  0  0  0  0
  9 27  1  0  0  0  0
  9 26  1  0  0  0  0
 10 11  1  0  0  0  0
 10  9  1  0  0  0  0
 11 31  1  0  0  0  0
 11 12  1  0  0  0  0
 12 33  1  0  0  0  0
 12 34  1  0  0  0  0
 13 35  1  0  0  0  0
 14 36  1  0  0  0  0
 17  2  1  0  0  0  0
 18  2  1  0  0  0  0
 21  5  1  0  0  0  0
 22  5  1  0  0  0  0
 24  8  1  0  0  0  0
 28 10  1  0  0  0  0
 29 10  1  0  0  0  0
 30 11  1  0  0  0  0
 32 12  1  0  0  0  0
M  END
