omegapdb_1z1r_20.xyz
 OpenBabel12161914463D

 66 68  0  0  1  0  0  0  0  0999 V2000
    0.6357   -1.3280    1.8340 C   0  0  2  0  0  0  0  0  0  0  0  0
    0.6926   -2.8155    1.4313 C   0  0  0  0  0  0  0  0  0  0  0  0
   -0.6144   -3.2713    0.8165 C   0  0  0  0  0  0  0  0  0  0  0  0
   -0.6603   -3.7515   -0.4934 C   0  0  0  0  0  0  0  0  0  0  0  0
   -1.8700   -3.9172   -1.1580 C   0  0  0  0  0  0  0  0  0  0  0  0
   -3.0509   -3.5426   -0.5259 C   0  0  0  0  0  0  0  0  0  0  0  0
   -3.0335   -3.1861    0.8222 C   0  0  0  0  0  0  0  0  0  0  0  0
   -1.8224   -3.0800    1.4927 C   0  0  0  0  0  0  0  0  0  0  0  0
   -4.2066   -3.4815   -1.2658 O   0  0  0  0  0  0  0  0  0  0  0  0
   -4.7556   -2.1635   -1.3595 C   0  0  0  0  0  0  0  0  0  0  0  0
   -3.7705   -1.1843   -2.0046 C   0  0  0  0  0  0  0  0  0  0  0  0
   -4.1626    0.2967   -1.8895 C   0  0  0  0  0  0  0  0  0  0  0  0
   -4.2732    0.7581   -0.4432 C   0  0  0  0  0  0  0  0  0  0  0  0
   -5.3351    0.7131    0.1534 O   0  0  0  0  0  0  0  0  0  0  0  0
   -3.1465    1.2511    0.1890 N   0  0  0  0  0  0  0  0  0  0  0  0
   -1.7713    0.9169   -0.1183 C   0  0  2  0  0  0  0  0  0  0  0  0
   -1.1944    0.1129    1.0563 C   0  0  0  0  0  0  0  0  0  0  0  0
   -1.7457    0.1031    2.1468 O   0  0  0  0  0  0  0  0  0  0  0  0
   -0.0053   -0.5065    0.8173 N   0  0  0  0  0  0  0  0  0  0  0  0
   -0.8907    2.1598   -0.3677 C   0  0  0  0  0  0  0  0  0  0  0  0
   -0.6245    2.9220    0.9187 C   0  0  0  0  0  0  0  0  0  0  0  0
    0.3655    2.7202    1.6088 O   0  0  0  0  0  0  0  0  0  0  0  0
   -1.5639    3.8476    1.2434 N   0  0  0  0  0  0  0  0  0  0  0  0
    1.9896   -0.7266    2.2386 C   0  0  2  0  0  0  0  0  0  0  0  0
    1.8000    0.5110    2.8974 O   0  0  0  0  0  0  0  0  0  0  0  0
    2.9645   -0.5451    1.0708 C   0  0  0  0  0  0  0  0  0  0  0  0
    4.1707    0.0879    1.5953 N   0  0  0  0  0  0  0  0  0  0  0  0
    5.4146    0.4545    0.5649 S   0  0  0  0  0  0  0  0  0  0  0  0
    6.4286    1.0961    1.3799 O   0  0  0  0  0  0  0  0  0  0  0  0
    5.6866   -0.7444   -0.2062 O   0  0  0  0  0  0  0  0  0  0  0  0
    4.7579    1.6707   -0.5487 C   0  0  0  0  0  0  0  0  0  0  0  0
    4.8956    3.0197   -0.2364 C   0  0  0  0  0  0  0  0  0  0  0  0
    4.3581    3.9698   -1.0984 C   0  0  0  0  0  0  0  0  0  0  0  0
    3.7011    3.5714   -2.2607 C   0  0  0  0  0  0  0  0  0  0  0  0
    3.5763    2.2175   -2.5650 C   0  0  0  0  0  0  0  0  0  0  0  0
    4.1079    1.2585   -1.7092 C   0  0  0  0  0  0  0  0  0  0  0  0
   -0.0134   -1.2152    2.7053 H   0  0  0  0  0  0  0  0  0  0  0  0
    1.5079   -2.9802    0.7141 H   0  0  0  0  0  0  0  0  0  0  0  0
    0.9298   -3.4047    2.3268 H   0  0  0  0  0  0  0  0  0  0  0  0
    0.2669   -3.9703   -1.0178 H   0  0  0  0  0  0  0  0  0  0  0  0
   -1.9070   -4.2605   -2.1896 H   0  0  0  0  0  0  0  0  0  0  0  0
   -3.9698   -2.9650    1.3293 H   0  0  0  0  0  0  0  0  0  0  0  0
   -1.8308   -2.7801    2.5390 H   0  0  0  0  0  0  0  0  0  0  0  0
   -5.0656   -1.8108   -0.3670 H   0  0  0  0  0  0  0  0  0  0  0  0
   -5.6602   -2.2734   -1.9661 H   0  0  0  0  0  0  0  0  0  0  0  0
   -2.7917   -1.3317   -1.5368 H   0  0  0  0  0  0  0  0  0  0  0  0
   -3.6518   -1.4474   -3.0621 H   0  0  0  0  0  0  0  0  0  0  0  0
   -3.4458    0.9171   -2.4404 H   0  0  0  0  0  0  0  0  0  0  0  0
   -5.1502    0.4574   -2.3342 H   0  0  0  0  0  0  0  0  0  0  0  0
   -3.3082    1.3211    1.1898 H   0  0  0  0  0  0  0  0  0  0  0  0
   -1.7386    0.3165   -1.0310 H   0  0  0  0  0  0  0  0  0  0  0  0
    0.3181   -0.5863   -0.1363 H   0  0  0  0  0  0  0  0  0  0  0  0
    0.0771    1.8496   -0.7703 H   0  0  0  0  0  0  0  0  0  0  0  0
   -1.3863    2.8013   -1.1014 H   0  0  0  0  0  0  0  0  0  0  0  0
   -2.4806    3.7903    0.8254 H   0  0  0  0  0  0  0  0  0  0  0  0
   -1.4825    4.3020    2.1415 H   0  0  0  0  0  0  0  0  0  0  0  0
    2.4586   -1.3915    2.9759 H   0  0  0  0  0  0  0  0  0  0  0  0
    1.2648    1.0981    2.3279 H   0  0  0  0  0  0  0  0  0  0  0  0
    3.2440   -1.5005    0.6169 H   0  0  0  0  0  0  0  0  0  0  0  0
    2.4990    0.0822    0.2956 H   0  0  0  0  0  0  0  0  0  0  0  0
    3.9921    0.8054    2.2900 H   0  0  0  0  0  0  0  0  0  0  0  0
    5.4320    3.3110    0.6630 H   0  0  0  0  0  0  0  0  0  0  0  0
    4.4564    5.0260   -0.8637 H   0  0  0  0  0  0  0  0  0  0  0  0
    3.2908    4.3188   -2.9353 H   0  0  0  0  0  0  0  0  0  0  0  0
    3.0652    1.9074   -3.4718 H   0  0  0  0  0  0  0  0  0  0  0  0
    4.0320    0.1982   -1.9379 H   0  0  0  0  0  0  0  0  0  0  0  0
  1 24  1  0  0  0  0
  1 37  1  1  0  0  0
  2  1  1  0  0  0  0
  2 39  1  0  0  0  0
  3  2  1  0  0  0  0
  3  8  1  0  0  0  0
  4  3  2  0  0  0  0
  5  6  2  0  0  0  0
  5  4  1  0  0  0  0
  6  7  1  0  0  0  0
  7 42  1  0  0  0  0
  7  8  2  0  0  0  0
  8 43  1  0  0  0  0
  9  6  1  0  0  0  0
 10  9  1  0  0  0  0
 10 44  1  0  0  0  0
 11 12  1  0  0  0  0
 11 46  1  0  0  0  0
 11 10  1  0  0  0  0
 12 13  1  0  0  0  0
 13 14  2  0  0  0  0
 13 15  1  0  0  0  0
 15 50  1  0  0  0  0
 16 51  1  6  0  0  0
 16 15  1  0  0  0  0
 16 17  1  0  0  0  0
 17 18  2  0  0  0  0
 19 17  1  0  0  0  0
 19  1  1  0  0  0  0
 20 16  1  0  0  0  0
 20 21  1  0  0  0  0
 21 23  1  0  0  0  0
 21 22  2  0  0  0  0
 23 56  1  0  0  0  0
 24 25  1  0  0  0  0
 24 57  1  1  0  0  0
 26 27  1  0  0  0  0
 26 24  1  0  0  0  0
 27 61  1  0  0  0  0
 28 29  2  0  0  0  0
 28 27  1  0  0  0  0
 30 28  2  0  0  0  0
 31 32  1  0  0  0  0
 31 28  1  0  0  0  0
 32 62  1  0  0  0  0
 33 63  1  0  0  0  0
 33 32  2  0  0  0  0
 34 33  1  0  0  0  0
 35 34  2  0  0  0  0
 35 36  1  0  0  0  0
 36 31  2  0  0  0  0
 38  2  1  0  0  0  0
 40  4  1  0  0  0  0
 41  5  1  0  0  0  0
 45 10  1  0  0  0  0
 47 11  1  0  0  0  0
 48 12  1  0  0  0  0
 49 12  1  0  0  0  0
 52 19  1  0  0  0  0
 53 20  1  0  0  0  0
 54 20  1  0  0  0  0
 55 23  1  0  0  0  0
 58 25  1  0  0  0  0
 59 26  1  0  0  0  0
 60 26  1  0  0  0  0
 64 34  1  0  0  0  0
 65 35  1  0  0  0  0
 66 36  1  0  0  0  0
M  END
