omegacsd_DIAVER_04.xyz
 OpenBabel12161914463D

 35 36  0  0  0  0  0  0  0  0999 V2000
   -3.6444    0.6404    1.2011 N   0  0  0  0  0  0  0  0  0  0  0  0
   -4.0274   -0.6392    1.3363 C   0  0  0  0  0  0  0  0  0  0  0  0
   -3.6335   -1.6768    0.5910 N   0  0  0  0  0  0  0  0  0  0  0  0
   -2.7607   -1.4146   -0.3783 C   0  0  0  0  0  0  0  0  0  0  0  0
   -2.2475   -0.1222   -0.6095 C   0  0  0  0  0  0  0  0  0  0  0  0
   -2.7584    0.8534    0.2295 C   0  0  0  0  0  0  0  0  0  0  0  0
   -1.1453    0.1719   -1.5999 C   0  0  0  0  0  0  0  0  0  0  0  0
    0.2462    0.1071   -0.9911 C   0  0  0  0  0  0  0  0  0  0  0  0
    0.9891    1.2784   -0.8011 C   0  0  0  0  0  0  0  0  0  0  0  0
    2.2544    1.2485   -0.2325 C   0  0  0  0  0  0  0  0  0  0  0  0
    2.8125    0.0072    0.1564 C   0  0  0  0  0  0  0  0  0  0  0  0
    2.0715   -1.1508   -0.0301 C   0  0  0  0  0  0  0  0  0  0  0  0
    0.7960   -1.1028   -0.5975 C   0  0  0  0  0  0  0  0  0  0  0  0
    4.0571    0.0564    0.6926 O   0  0  0  0  0  0  0  0  0  0  0  0
    4.6514   -1.1667    1.0681 C   0  0  0  0  0  0  0  0  0  0  0  0
    3.0261    2.3427   -0.0135 O   0  0  0  0  0  0  0  0  0  0  0  0
    2.4890    3.5913   -0.3871 C   0  0  0  0  0  0  0  0  0  0  0  0
   -2.3400   -2.5021   -1.1178 N   0  0  0  0  0  0  0  0  0  0  0  0
   -4.8936   -0.9215    2.3507 N   0  0  0  0  0  0  0  0  0  0  0  0
   -2.4363    1.8907    0.1129 H   0  0  0  0  0  0  0  0  0  0  0  0
   -1.3081    1.1744   -2.0118 H   0  0  0  0  0  0  0  0  0  0  0  0
   -1.2010   -0.5102   -2.4594 H   0  0  0  0  0  0  0  0  0  0  0  0
    0.5653    2.2262   -1.1153 H   0  0  0  0  0  0  0  0  0  0  0  0
    2.4775   -2.1121    0.2651 H   0  0  0  0  0  0  0  0  0  0  0  0
    0.2426   -2.0285   -0.7324 H   0  0  0  0  0  0  0  0  0  0  0  0
    4.0697   -1.6752    1.8488 H   0  0  0  0  0  0  0  0  0  0  0  0
    4.7663   -1.8386    0.2067 H   0  0  0  0  0  0  0  0  0  0  0  0
    5.6366   -0.9135    1.4618 H   0  0  0  0  0  0  0  0  0  0  0  0
    2.2973    3.6372   -1.4670 H   0  0  0  0  0  0  0  0  0  0  0  0
    3.2402    4.3365   -0.1213 H   0  0  0  0  0  0  0  0  0  0  0  0
    1.5583    3.8045    0.1543 H   0  0  0  0  0  0  0  0  0  0  0  0
   -2.1645   -2.3306   -2.0991 H   0  0  0  0  0  0  0  0  0  0  0  0
   -2.9261   -3.3126   -0.9584 H   0  0  0  0  0  0  0  0  0  0  0  0
   -5.3879   -0.1408    2.7527 H   0  0  0  0  0  0  0  0  0  0  0  0
   -5.3724   -1.8077    2.2965 H   0  0  0  0  0  0  0  0  0  0  0  0
  1  2  2  0  0  0  0
  2 19  1  0  0  0  0
  3  2  1  0  0  0  0
  4  3  2  0  0  0  0
  5  4  1  0  0  0  0
  5  6  2  0  0  0  0
  6  1  1  0  0  0  0
  7  8  1  0  0  0  0
  7  5  1  0  0  0  0
  8  9  2  0  0  0  0
  8 13  1  0  0  0  0
  9 10  1  0  0  0  0
 10 16  1  0  0  0  0
 10 11  2  0  0  0  0
 11 14  1  0  0  0  0
 12 11  1  0  0  0  0
 12 24  1  0  0  0  0
 13 12  2  0  0  0  0
 14 15  1  0  0  0  0
 15 28  1  0  0  0  0
 15 26  1  0  0  0  0
 17 30  1  0  0  0  0
 17 16  1  0  0  0  0
 17 31  1  0  0  0  0
 18 33  1  0  0  0  0
 18  4  1  0  0  0  0
 19 34  1  0  0  0  0
 20  6  1  0  0  0  0
 21  7  1  0  0  0  0
 22  7  1  0  0  0  0
 23  9  1  0  0  0  0
 25 13  1  0  0  0  0
 27 15  1  0  0  0  0
 29 17  1  0  0  0  0
 32 18  1  0  0  0  0
 35 19  1  0  0  0  0
M  END
