omegacsd_SEYMIS_10.xyz
 OpenBabel12161914463D

 45 47  0  0  0  0  0  0  0  0999 V2000
   -5.2152   -2.3127    0.5828 O   0  0  0  0  0  0  0  0  0  0  0  0
   -5.2765   -1.3119   -0.3583 N   0  0  0  0  0  0  0  0  0  0  0  0
   -4.1126   -0.7199   -0.3421 C   0  0  0  0  0  0  0  0  0  0  0  0
   -3.2288   -1.3635    0.5999 C   0  0  0  0  0  0  0  0  0  0  0  0
   -1.7942   -1.1679    0.8970 C   0  0  0  0  0  0  0  0  0  0  0  0
   -1.2722   -1.6223    1.9068 O   0  0  0  0  0  0  0  0  0  0  0  0
   -1.0891   -0.4668   -0.0444 N   0  0  0  0  0  0  0  0  0  0  0  0
    0.2918   -0.2090   -0.0029 C   0  0  0  0  0  0  0  0  0  0  0  0
    0.9773    0.6077   -0.8804 C   0  0  0  0  0  0  0  0  0  0  0  0
    2.3048    0.6189   -0.5414 N   0  0  0  0  0  0  0  0  0  0  0  0
    3.3193    1.3772   -1.2479 C   0  0  0  0  0  0  0  0  0  0  0  0
    2.4717   -0.2001    0.5619 C   0  0  0  0  0  0  0  0  0  0  0  0
    1.2361   -0.7163    0.9074 C   0  0  0  0  0  0  0  0  0  0  0  0
    3.7162   -0.5050    1.2849 C   0  0  0  0  0  0  0  0  0  0  0  0
    3.7400   -1.2581    2.2355 O   0  0  0  0  0  0  0  0  0  0  0  0
    4.8143    0.1135    0.8144 O   0  0  0  0  0  0  0  0  0  0  0  0
    6.0292   -0.1716    1.5433 C   0  0  0  0  0  0  0  0  0  0  0  0
    7.1407    0.6079    0.8800 C   0  0  0  0  0  0  0  0  0  0  0  0
   -4.0119   -2.3358    1.1613 C   0  0  0  0  0  0  0  0  0  0  0  0
   -3.7877   -3.3611    2.2130 C   0  0  0  0  0  0  0  0  0  0  0  0
   -3.8972    0.4761   -1.1870 C   0  0  0  0  0  0  0  0  0  0  0  0
   -4.3173    0.4733   -2.5169 C   0  0  0  0  0  0  0  0  0  0  0  0
   -4.0887    1.5842   -3.3208 C   0  0  0  0  0  0  0  0  0  0  0  0
   -3.4586    2.7111   -2.7987 C   0  0  0  0  0  0  0  0  0  0  0  0
   -3.0663    2.7307   -1.4631 C   0  0  0  0  0  0  0  0  0  0  0  0
   -3.2964    1.6195   -0.6574 C   0  0  0  0  0  0  0  0  0  0  0  0
   -1.5842   -0.1425   -0.8633 H   0  0  0  0  0  0  0  0  0  0  0  0
    0.6257    1.1980   -1.7165 H   0  0  0  0  0  0  0  0  0  0  0  0
    4.0899    0.7163   -1.6483 H   0  0  0  0  0  0  0  0  0  0  0  0
    3.7946    2.1033   -0.5861 H   0  0  0  0  0  0  0  0  0  0  0  0
    2.8338    1.9050   -2.0720 H   0  0  0  0  0  0  0  0  0  0  0  0
    1.0291   -1.3813    1.7322 H   0  0  0  0  0  0  0  0  0  0  0  0
    5.8934    0.1197    2.5894 H   0  0  0  0  0  0  0  0  0  0  0  0
    6.2145   -1.2499    1.5206 H   0  0  0  0  0  0  0  0  0  0  0  0
    6.9342    1.6816    0.9138 H   0  0  0  0  0  0  0  0  0  0  0  0
    8.0859    0.4237    1.4013 H   0  0  0  0  0  0  0  0  0  0  0  0
    7.2592    0.3024   -0.1636 H   0  0  0  0  0  0  0  0  0  0  0  0
   -2.8053   -3.2162    2.6588 H   0  0  0  0  0  0  0  0  0  0  0  0
   -4.5571   -3.2843    2.9865 H   0  0  0  0  0  0  0  0  0  0  0  0
   -3.8401   -4.3651    1.7804 H   0  0  0  0  0  0  0  0  0  0  0  0
   -4.8211   -0.4044   -2.9124 H   0  0  0  0  0  0  0  0  0  0  0  0
   -4.4129    1.5743   -4.3588 H   0  0  0  0  0  0  0  0  0  0  0  0
   -3.2834    3.5774   -3.4307 H   0  0  0  0  0  0  0  0  0  0  0  0
   -2.5837    3.6099   -1.0472 H   0  0  0  0  0  0  0  0  0  0  0  0
   -3.0012    1.6339    0.3880 H   0  0  0  0  0  0  0  0  0  0  0  0
  1 19  1  0  0  0  0
  2  3  2  0  0  0  0
  2  1  1  0  0  0  0
  3  4  1  0  0  0  0
  4  5  1  0  0  0  0
  4 19  2  0  0  0  0
  5  6  2  0  0  0  0
  7  8  1  0  0  0  0
  7  5  1  0  0  0  0
  8 13  1  0  0  0  0
  9 10  1  0  0  0  0
  9  8  2  0  0  0  0
 10 12  1  0  0  0  0
 11 30  1  0  0  0  0
 11 10  1  0  0  0  0
 12 13  2  0  0  0  0
 12 14  1  0  0  0  0
 13 32  1  0  0  0  0
 14 15  2  0  0  0  0
 16 14  1  0  0  0  0
 16 17  1  0  0  0  0
 17 33  1  0  0  0  0
 18 35  1  0  0  0  0
 18 36  1  0  0  0  0
 18 17  1  0  0  0  0
 19 20  1  0  0  0  0
 20 38  1  0  0  0  0
 20 39  1  0  0  0  0
 21 26  1  0  0  0  0
 21  3  1  0  0  0  0
 22 21  2  0  0  0  0
 23 24  2  0  0  0  0
 23 22  1  0  0  0  0
 24 25  1  0  0  0  0
 25 44  1  0  0  0  0
 25 26  2  0  0  0  0
 26 45  1  0  0  0  0
 27  7  1  0  0  0  0
 28  9  1  0  0  0  0
 29 11  1  0  0  0  0
 31 11  1  0  0  0  0
 34 17  1  0  0  0  0
 37 18  1  0  0  0  0
 40 20  1  0  0  0  0
 41 22  1  0  0  0  0
 42 23  1  0  0  0  0
 43 24  1  0  0  0  0
M  END
