omegapdb_1qxw_30.xyz
 OpenBabel12161914463D

 36 36  0  0  1  0  0  0  0  0999 V2000
    4.7085    0.6633    0.6958 C   0  0  0  0  0  0  0  0  0  0  0  0
    4.6854    1.4838   -0.5689 C   0  0  0  0  0  0  0  0  0  0  0  0
    3.8470    0.2490   -0.4682 C   0  0  0  0  0  0  0  0  0  0  0  0
    2.4184    0.3397   -0.4217 N   0  0  0  0  0  0  0  0  0  0  0  0
    1.8132   -0.6329    0.4720 C   0  0  0  0  0  0  0  0  0  0  0  0
    0.3071   -0.4060    0.5778 C   0  0  0  0  0  0  0  0  0  0  0  0
   -0.4169   -0.7231   -0.7495 C   0  0  1  0  0  0  0  0  0  0  0  0
   -0.5207   -2.1611   -1.0040 N   0  0  0  0  0  0  0  0  0  0  0  0
   -1.8012   -0.0726   -0.8651 C   0  0  0  0  0  0  0  0  0  0  0  0
   -2.8424   -0.5205    0.1646 C   0  0  0  0  0  0  0  0  0  0  0  0
   -4.2789   -0.1746   -0.2401 C   0  0  0  0  0  0  0  0  0  0  0  0
   -4.5337    1.3277   -0.3422 C   0  0  0  0  0  0  0  0  0  0  0  0
   -0.1188   -1.2585    1.6321 O   0  0  0  0  0  0  0  0  0  0  0  0
    0.0593    0.9490    0.9151 O   0  0  0  0  0  0  0  0  0  0  0  0
    4.2109    1.0752    1.5721 H   0  0  0  0  0  0  0  0  0  0  0  0
    5.5942    0.0744    0.9141 H   0  0  0  0  0  0  0  0  0  0  0  0
    5.5578    1.4650   -1.2170 H   0  0  0  0  0  0  0  0  0  0  0  0
    4.1804    2.4466   -0.5393 H   0  0  0  0  0  0  0  0  0  0  0  0
    4.1934   -0.6140   -1.0366 H   0  0  0  0  0  0  0  0  0  0  0  0
    2.1176    1.2683   -0.1401 H   0  0  0  0  0  0  0  0  0  0  0  0
    2.2125   -0.5765    1.4955 H   0  0  0  0  0  0  0  0  0  0  0  0
    2.0020   -1.6488    0.1052 H   0  0  0  0  0  0  0  0  0  0  0  0
    0.1946   -0.2875   -1.5497 H   0  0  0  0  0  0  0  0  0  0  0  0
    0.2953   -2.4977   -1.5042 H   0  0  0  0  0  0  0  0  0  0  0  0
   -0.5574   -2.6575   -0.1185 H   0  0  0  0  0  0  0  0  0  0  0  0
   -1.6917    1.0169   -0.8475 H   0  0  0  0  0  0  0  0  0  0  0  0
   -2.1661   -0.3443   -1.8637 H   0  0  0  0  0  0  0  0  0  0  0  0
   -2.7688   -1.6087    0.3012 H   0  0  0  0  0  0  0  0  0  0  0  0
   -2.6381   -0.0479    1.1366 H   0  0  0  0  0  0  0  0  0  0  0  0
   -4.5136   -0.6548   -1.2004 H   0  0  0  0  0  0  0  0  0  0  0  0
   -4.9660   -0.6119    0.4951 H   0  0  0  0  0  0  0  0  0  0  0  0
   -5.5836    1.5397   -0.5701 H   0  0  0  0  0  0  0  0  0  0  0  0
   -4.2857    1.8316    0.5999 H   0  0  0  0  0  0  0  0  0  0  0  0
   -3.9261    1.7832   -1.1319 H   0  0  0  0  0  0  0  0  0  0  0  0
   -1.0370   -1.0386    1.8463 H   0  0  0  0  0  0  0  0  0  0  0  0
    0.2489    1.0238    1.8621 H   0  0  0  0  0  0  0  0  0  0  0  0
  1 16  1  0  0  0  0
  1 15  1  0  0  0  0
  2 18  1  0  0  0  0
  2  3  1  0  0  0  0
  2  1  1  0  0  0  0
  3  4  1  0  0  0  0
  3  1  1  0  0  0  0
  4 20  1  0  0  0  0
  4  5  1  0  0  0  0
  5  6  1  0  0  0  0
  5 21  1  0  0  0  0
  6 14  1  0  0  0  0
  6 13  1  0  0  0  0
  7 23  1  6  0  0  0
  7  6  1  0  0  0  0
  8  7  1  0  0  0  0
  8 25  1  0  0  0  0
  9 26  1  0  0  0  0
  9  7  1  0  0  0  0
  9 10  1  0  0  0  0
 10 28  1  0  0  0  0
 10 29  1  0  0  0  0
 11 10  1  0  0  0  0
 11 31  1  0  0  0  0
 12 11  1  0  0  0  0
 12 33  1  0  0  0  0
 13 35  1  0  0  0  0
 14 36  1  0  0  0  0
 17  2  1  0  0  0  0
 19  3  1  0  0  0  0
 22  5  1  0  0  0  0
 24  8  1  0  0  0  0
 27  9  1  0  0  0  0
 30 11  1  0  0  0  0
 32 12  1  0  0  0  0
 34 12  1  0  0  0  0
M  END
