omegacsd_FABSOQ10_00.xyz
 OpenBabel12161914463D

 45 47  0  0  1  0  0  0  0  0999 V2000
    0.0174   -0.3397    0.2712 S   0  0  0  0  0  0  0  0  0  0  0  0
   -1.0878   -1.5553    0.8169 C   0  0  0  0  0  0  0  0  0  0  0  0
   -0.8752   -2.7432    0.1829 C   0  0  0  0  0  0  0  0  0  0  0  0
    0.1836   -2.6730   -0.7641 C   0  0  0  0  0  0  0  0  0  0  0  0
    0.7769   -1.4430   -0.8228 C   0  0  0  0  0  0  0  0  0  0  0  0
    1.9002   -0.9777   -1.7186 C   0  0  1  0  0  0  0  0  0  0  0  0
    1.4824    0.0317   -2.6164 O   0  0  0  0  0  0  0  0  0  0  0  0
    3.1394   -0.5739   -0.9311 C   0  0  0  0  0  0  0  0  0  0  0  0
    3.8058    0.6153   -1.1967 C   0  0  0  0  0  0  0  0  0  0  0  0
    4.9579    0.9705   -0.4993 C   0  0  0  0  0  0  0  0  0  0  0  0
    5.4611    0.1161    0.4797 C   0  0  0  0  0  0  0  0  0  0  0  0
    6.5746    0.3641    1.2180 O   0  0  0  0  0  0  0  0  0  0  0  0
    7.2591    1.5725    0.9701 C   0  0  0  0  0  0  0  0  0  0  0  0
    4.8073   -1.0918    0.7450 C   0  0  0  0  0  0  0  0  0  0  0  0
    3.6616   -1.4272    0.0453 C   0  0  0  0  0  0  0  0  0  0  0  0
   -2.1169   -1.2403    1.8632 C   0  0  2  0  0  0  0  0  0  0  0  0
   -2.7440   -2.4622    2.2151 O   0  0  0  0  0  0  0  0  0  0  0  0
   -3.1234   -0.2051    1.3772 C   0  0  0  0  0  0  0  0  0  0  0  0
   -4.1424   -0.5692    0.5042 C   0  0  0  0  0  0  0  0  0  0  0  0
   -5.0378    0.3765    0.0130 C   0  0  0  0  0  0  0  0  0  0  0  0
   -4.9142    1.7103    0.4020 C   0  0  0  0  0  0  0  0  0  0  0  0
   -5.7259    2.7132   -0.0249 O   0  0  0  0  0  0  0  0  0  0  0  0
   -6.7824    2.3676   -0.8928 C   0  0  0  0  0  0  0  0  0  0  0  0
   -3.9020    2.0832    1.2916 C   0  0  0  0  0  0  0  0  0  0  0  0
   -3.0230    1.1288    1.7747 C   0  0  0  0  0  0  0  0  0  0  0  0
   -1.4702   -3.6230    0.3984 H   0  0  0  0  0  0  0  0  0  0  0  0
    0.4950   -3.5043   -1.3871 H   0  0  0  0  0  0  0  0  0  0  0  0
    2.1733   -1.8318   -2.3551 H   0  0  0  0  0  0  0  0  0  0  0  0
    0.9685    0.6744   -2.1045 H   0  0  0  0  0  0  0  0  0  0  0  0
    3.4247    1.2782   -1.9696 H   0  0  0  0  0  0  0  0  0  0  0  0
    5.4498    1.9092   -0.7307 H   0  0  0  0  0  0  0  0  0  0  0  0
    7.6260    1.6203   -0.0636 H   0  0  0  0  0  0  0  0  0  0  0  0
    6.6181    2.4434    1.1609 H   0  0  0  0  0  0  0  0  0  0  0  0
    8.1062    1.5871    1.6575 H   0  0  0  0  0  0  0  0  0  0  0  0
    5.2197   -1.7458    1.5069 H   0  0  0  0  0  0  0  0  0  0  0  0
    3.1628   -2.3700    0.2604 H   0  0  0  0  0  0  0  0  0  0  0  0
   -1.5959   -0.8136    2.7384 H   0  0  0  0  0  0  0  0  0  0  0  0
   -3.3839   -2.2663    2.9135 H   0  0  0  0  0  0  0  0  0  0  0  0
   -4.2540   -1.6095    0.2070 H   0  0  0  0  0  0  0  0  0  0  0  0
   -5.8246    0.0640   -0.6656 H   0  0  0  0  0  0  0  0  0  0  0  0
   -7.4668    1.6487   -0.4231 H   0  0  0  0  0  0  0  0  0  0  0  0
   -6.4071    1.9421   -1.8330 H   0  0  0  0  0  0  0  0  0  0  0  0
   -7.3165    3.2958   -1.1013 H   0  0  0  0  0  0  0  0  0  0  0  0
   -3.8293    3.1257    1.5851 H   0  0  0  0  0  0  0  0  0  0  0  0
   -2.2483    1.4274    2.4795 H   0  0  0  0  0  0  0  0  0  0  0  0
  1  2  1  0  0  0  0
  2 16  1  0  0  0  0
  3 26  1  0  0  0  0
  3  2  2  0  0  0  0
  4  3  1  0  0  0  0
  5  4  2  0  0  0  0
  5  1  1  0  0  0  0
  6 28  1  6  0  0  0
  6  8  1  0  0  0  0
  6  5  1  0  0  0  0
  7 29  1  0  0  0  0
  7  6  1  0  0  0  0
  8 15  1  0  0  0  0
  9  8  2  0  0  0  0
  9 10  1  0  0  0  0
 10 11  2  0  0  0  0
 11 14  1  0  0  0  0
 11 12  1  0  0  0  0
 13 33  1  0  0  0  0
 13 12  1  0  0  0  0
 13 34  1  0  0  0  0
 14 35  1  0  0  0  0
 15 36  1  0  0  0  0
 15 14  2  0  0  0  0
 16 17  1  0  0  0  0
 16 37  1  1  0  0  0
 17 38  1  0  0  0  0
 18 25  1  0  0  0  0
 18 16  1  0  0  0  0
 19 18  2  0  0  0  0
 20 21  2  0  0  0  0
 20 19  1  0  0  0  0
 21 24  1  0  0  0  0
 22 21  1  0  0  0  0
 23 41  1  0  0  0  0
 23 22  1  0  0  0  0
 24 44  1  0  0  0  0
 24 25  2  0  0  0  0
 25 45  1  0  0  0  0
 27  4  1  0  0  0  0
 30  9  1  0  0  0  0
 31 10  1  0  0  0  0
 32 13  1  0  0  0  0
 39 19  1  0  0  0  0
 40 20  1  0  0  0  0
 42 23  1  0  0  0  0
 43 23  1  0  0  0  0
M  END
