omegacsd_GALSEM_01.xyz
 OpenBabel12161914463D

 39 40  0  0  0  0  0  0  0  0999 V2000
    0.7481   -0.0313    1.9627 S   0  0  0  0  0  0  0  0  0  0  0  0
    0.2945    1.2920    1.5363 O   0  0  0  0  0  0  0  0  0  0  0  0
   -0.0078   -0.7817    2.9497 O   0  0  0  0  0  0  0  0  0  0  0  0
    2.2860    0.0718    2.5945 N   0  0  0  0  0  0  0  0  0  0  0  0
    3.3020    0.8155    1.9990 C   0  0  0  0  0  0  0  0  0  0  0  0
    3.2125    1.2288    0.8662 O   0  0  0  0  0  0  0  0  0  0  0  0
    4.5128    1.0072    2.8908 C   0  0  0  0  0  0  0  0  0  0  0  0
    5.6333    1.7360    2.1595 C   0  0  0  0  0  0  0  0  0  0  0  0
    0.9726   -1.0194    0.5056 C   0  0  0  0  0  0  0  0  0  0  0  0
    0.0018   -0.9620   -0.5168 C   0  0  0  0  0  0  0  0  0  0  0  0
   -1.0500   -0.0761   -0.4365 N   0  0  0  0  0  0  0  0  0  0  0  0
   -2.2986   -0.1929   -1.0485 C   0  0  0  0  0  0  0  0  0  0  0  0
   -2.9694    0.9857   -1.3856 C   0  0  0  0  0  0  0  0  0  0  0  0
   -4.2309    0.9244   -1.9620 C   0  0  0  0  0  0  0  0  0  0  0  0
   -4.8526   -0.3015   -2.1893 C   0  0  0  0  0  0  0  0  0  0  0  0
   -4.1932   -1.4713   -1.8301 C   0  0  0  0  0  0  0  0  0  0  0  0
   -2.9225   -1.4256   -1.2672 C   0  0  0  0  0  0  0  0  0  0  0  0
   -4.9410    2.1865   -2.3647 C   0  0  0  0  0  0  0  0  0  0  0  0
   -4.3338    3.2872   -1.8884 F   0  0  0  0  0  0  0  0  0  0  0  0
   -6.2130    2.1987   -1.9195 F   0  0  0  0  0  0  0  0  0  0  0  0
   -5.0028    2.3116   -3.7051 F   0  0  0  0  0  0  0  0  0  0  0  0
    0.1857   -1.8183   -1.6057 C   0  0  0  0  0  0  0  0  0  0  0  0
    1.2595   -2.6993   -1.6016 C   0  0  0  0  0  0  0  0  0  0  0  0
    2.1547   -2.7910   -0.6162 N   0  0  0  0  0  0  0  0  0  0  0  0
    1.9953   -1.9599    0.4124 C   0  0  0  0  0  0  0  0  0  0  0  0
    2.3450   -0.2145    3.5637 H   0  0  0  0  0  0  0  0  0  0  0  0
    4.8498    0.0199    3.2358 H   0  0  0  0  0  0  0  0  0  0  0  0
    4.2036    1.5670    3.7849 H   0  0  0  0  0  0  0  0  0  0  0  0
    5.9279    1.1837    1.2628 H   0  0  0  0  0  0  0  0  0  0  0  0
    6.5098    1.8517    2.8045 H   0  0  0  0  0  0  0  0  0  0  0  0
    5.2993    2.7254    1.8355 H   0  0  0  0  0  0  0  0  0  0  0  0
   -0.8820    0.7335    0.1601 H   0  0  0  0  0  0  0  0  0  0  0  0
   -2.4991    1.9476   -1.1895 H   0  0  0  0  0  0  0  0  0  0  0  0
   -5.8411   -0.3299   -2.6350 H   0  0  0  0  0  0  0  0  0  0  0  0
   -4.6697   -2.4337   -1.9916 H   0  0  0  0  0  0  0  0  0  0  0  0
   -2.4220   -2.3467   -0.9807 H   0  0  0  0  0  0  0  0  0  0  0  0
   -0.4927   -1.7886   -2.4531 H   0  0  0  0  0  0  0  0  0  0  0  0
    1.4005   -3.3793   -2.4395 H   0  0  0  0  0  0  0  0  0  0  0  0
    2.7277   -2.0512    1.2117 H   0  0  0  0  0  0  0  0  0  0  0  0
  1  4  1  0  0  0  0
  1  3  2  0  0  0  0
  2  1  2  0  0  0  0
  4 26  1  0  0  0  0
  5  4  1  0  0  0  0
  5  7  1  0  0  0  0
  6  5  2  0  0  0  0
  7 27  1  0  0  0  0
  7 28  1  0  0  0  0
  8 30  1  0  0  0  0
  8  7  1  0  0  0  0
  9  1  1  0  0  0  0
 10 11  1  0  0  0  0
 10  9  2  0  0  0  0
 11 32  1  0  0  0  0
 12 11  1  0  0  0  0
 13 33  1  0  0  0  0
 13 12  2  0  0  0  0
 14 13  1  0  0  0  0
 15 14  2  0  0  0  0
 15 16  1  0  0  0  0
 16 17  2  0  0  0  0
 17 12  1  0  0  0  0
 17 36  1  0  0  0  0
 18 14  1  0  0  0  0
 18 20  1  0  0  0  0
 18 19  1  0  0  0  0
 21 18  1  0  0  0  0
 22 23  2  0  0  0  0
 22 10  1  0  0  0  0
 23 24  1  0  0  0  0
 24 25  2  0  0  0  0
 25  9  1  0  0  0  0
 25 39  1  0  0  0  0
 29  8  1  0  0  0  0
 31  8  1  0  0  0  0
 34 15  1  0  0  0  0
 35 16  1  0  0  0  0
 37 22  1  0  0  0  0
 38 23  1  0  0  0  0
M  END
