omegapdb_1xom_13.xyz
 OpenBabel12161914463D

 50 52  0  0  1  0  0  0  0  0999 V2000
    6.5132    1.8371   -0.1603 O   0  0  0  0  0  0  0  0  0  0  0  0
    5.8840    0.7608   -0.6775 C   0  0  0  0  0  0  0  0  0  0  0  0
    6.4814   -0.2518   -0.9571 O   0  0  0  0  0  0  0  0  0  0  0  0
    4.3936    0.9969   -0.8523 C   0  0  1  0  0  0  0  0  0  0  0  0
    3.6855   -0.2653   -1.3664 C   0  0  0  0  0  0  0  0  0  0  0  0
    3.2179   -1.1378   -0.2038 C   0  0  0  0  0  0  0  0  0  0  0  0
    2.1246   -0.4242    0.6652 C   0  0  2  0  0  0  0  0  0  0  0  0
    2.2948    1.1167    0.5413 C   0  0  0  0  0  0  0  0  0  0  0  0
    3.7682    1.5081    0.4704 C   0  0  0  0  0  0  0  0  0  0  0  0
    2.3904   -0.7982    2.0791 C   0  0  0  0  0  0  0  0  0  0  0  0
    2.6026   -1.0856    3.1804 N   0  0  0  0  0  0  0  0  0  0  0  0
    0.7075   -0.9214    0.3178 C   0  0  0  0  0  0  0  0  0  0  0  0
    0.4055   -2.2644    0.5308 C   0  0  0  0  0  0  0  0  0  0  0  0
   -0.8371   -2.7955    0.1858 C   0  0  0  0  0  0  0  0  0  0  0  0
   -1.8151   -1.9807   -0.3715 C   0  0  0  0  0  0  0  0  0  0  0  0
   -3.0553   -2.3884   -0.7457 O   0  0  0  0  0  0  0  0  0  0  0  0
   -3.3666   -3.7554   -0.5901 C   0  0  0  0  0  0  0  0  0  0  0  0
   -1.5311   -0.6170   -0.5645 C   0  0  0  0  0  0  0  0  0  0  0  0
   -0.2916   -0.1058   -0.2170 C   0  0  0  0  0  0  0  0  0  0  0  0
   -2.4774    0.2030   -1.1256 O   0  0  0  0  0  0  0  0  0  0  0  0
   -3.4735    0.6307   -0.1944 C   0  0  0  0  0  0  0  0  0  0  0  0
   -4.5400    1.4461   -0.9087 C   0  0  0  0  0  0  0  0  0  0  0  0
   -5.2577    2.1721    0.2384 C   0  0  0  0  0  0  0  0  0  0  0  0
   -4.1560    2.4412    1.2982 C   0  0  0  0  0  0  0  0  0  0  0  0
   -2.9333    1.6044    0.8583 C   0  0  0  0  0  0  0  0  0  0  0  0
    7.4512    1.5920   -0.0920 H   0  0  0  0  0  0  0  0  0  0  0  0
    4.3019    1.7853   -1.6112 H   0  0  0  0  0  0  0  0  0  0  0  0
    2.8233    0.0195   -1.9806 H   0  0  0  0  0  0  0  0  0  0  0  0
    4.3692   -0.8253   -2.0092 H   0  0  0  0  0  0  0  0  0  0  0  0
    2.8279   -2.0913   -0.5762 H   0  0  0  0  0  0  0  0  0  0  0  0
    4.0847   -1.3720    0.4249 H   0  0  0  0  0  0  0  0  0  0  0  0
    1.8143    1.4611   -0.3798 H   0  0  0  0  0  0  0  0  0  0  0  0
    1.7897    1.6085    1.3785 H   0  0  0  0  0  0  0  0  0  0  0  0
    4.3071    1.0854    1.3261 H   0  0  0  0  0  0  0  0  0  0  0  0
    3.8837    2.5928    0.5334 H   0  0  0  0  0  0  0  0  0  0  0  0
    1.1457   -2.9228    0.9828 H   0  0  0  0  0  0  0  0  0  0  0  0
   -1.0328   -3.8467    0.3624 H   0  0  0  0  0  0  0  0  0  0  0  0
   -2.6781   -4.3897   -1.1637 H   0  0  0  0  0  0  0  0  0  0  0  0
   -3.3367   -4.0524    0.4667 H   0  0  0  0  0  0  0  0  0  0  0  0
   -4.3792   -3.8811   -0.9756 H   0  0  0  0  0  0  0  0  0  0  0  0
   -0.1396    0.9594   -0.3619 H   0  0  0  0  0  0  0  0  0  0  0  0
   -3.9209   -0.2473    0.2920 H   0  0  0  0  0  0  0  0  0  0  0  0
   -4.0345    2.1627   -1.5696 H   0  0  0  0  0  0  0  0  0  0  0  0
   -5.2009    0.8275   -1.5250 H   0  0  0  0  0  0  0  0  0  0  0  0
   -6.0304    1.5209    0.6643 H   0  0  0  0  0  0  0  0  0  0  0  0
   -5.7592    3.0879   -0.0902 H   0  0  0  0  0  0  0  0  0  0  0  0
   -3.8965    3.5038    1.3441 H   0  0  0  0  0  0  0  0  0  0  0  0
   -4.5040    2.1557    2.2961 H   0  0  0  0  0  0  0  0  0  0  0  0
   -2.1909    2.2499    0.3738 H   0  0  0  0  0  0  0  0  0  0  0  0
   -2.4294    1.0905    1.6845 H   0  0  0  0  0  0  0  0  0  0  0  0
  1 26  1  0  0  0  0
  2  1  1  0  0  0  0
  3  2  2  0  0  0  0
  4 27  1  6  0  0  0
  4  2  1  0  0  0  0
  4  9  1  0  0  0  0
  5  4  1  0  0  0  0
  5  6  1  0  0  0  0
  6 31  1  0  0  0  0
  6  7  1  0  0  0  0
  7 10  1  1  0  0  0
  8  7  1  0  0  0  0
  8 33  1  0  0  0  0
  9 35  1  0  0  0  0
  9  8  1  0  0  0  0
  9 34  1  0  0  0  0
 10 11  3  0  0  0  0
 12 13  1  0  0  0  0
 12  7  1  0  0  0  0
 13 36  1  0  0  0  0
 14 37  1  0  0  0  0
 14 13  2  0  0  0  0
 15 14  1  0  0  0  0
 16 17  1  0  0  0  0
 16 15  1  0  0  0  0
 17 39  1  0  0  0  0
 18 15  2  0  0  0  0
 18 19  1  0  0  0  0
 19 12  2  0  0  0  0
 20 18  1  0  0  0  0
 20 21  1  0  0  0  0
 21 42  1  0  0  0  0
 21 25  1  0  0  0  0
 22 21  1  0  0  0  0
 22 23  1  0  0  0  0
 23 45  1  0  0  0  0
 23 24  1  0  0  0  0
 24 47  1  0  0  0  0
 24 48  1  0  0  0  0
 25 24  1  0  0  0  0
 25 50  1  0  0  0  0
 28  5  1  0  0  0  0
 29  5  1  0  0  0  0
 30  6  1  0  0  0  0
 32  8  1  0  0  0  0
 38 17  1  0  0  0  0
 40 17  1  0  0  0  0
 41 19  1  0  0  0  0
 43 22  1  0  0  0  0
 44 22  1  0  0  0  0
 46 23  1  0  0  0  0
 49 25  1  0  0  0  0
M  END
