omegapdb_1qxw_16.xyz
 OpenBabel12161914463D

 36 36  0  0  1  0  0  0  0  0999 V2000
    3.8575    1.8653   -0.5257 C   0  0  0  0  0  0  0  0  0  0  0  0
    4.1725    0.4635   -0.9806 C   0  0  0  0  0  0  0  0  0  0  0  0
    2.7453    0.9005   -0.7912 C   0  0  0  0  0  0  0  0  0  0  0  0
    1.9289    0.4165    0.2876 N   0  0  0  0  0  0  0  0  0  0  0  0
    1.7015   -1.0216    0.3052 C   0  0  0  0  0  0  0  0  0  0  0  0
    0.6373   -1.3859    1.3431 C   0  0  0  0  0  0  0  0  0  0  0  0
   -0.7651   -0.7993    1.0319 C   0  0  1  0  0  0  0  0  0  0  0  0
   -0.7655    0.5943    1.4727 N   0  0  0  0  0  0  0  0  0  0  0  0
   -1.2389   -1.0528   -0.4042 C   0  0  0  0  0  0  0  0  0  0  0  0
   -2.7025   -0.6766   -0.6668 C   0  0  0  0  0  0  0  0  0  0  0  0
   -2.9098    0.7713   -1.1208 C   0  0  0  0  0  0  0  0  0  0  0  0
   -4.3776    1.1100   -1.3676 C   0  0  0  0  0  0  0  0  0  0  0  0
    0.5831   -2.7935    1.3638 O   0  0  0  0  0  0  0  0  0  0  0  0
    1.0291   -0.9370    2.6227 O   0  0  0  0  0  0  0  0  0  0  0  0
    4.0719    2.1233    0.5086 H   0  0  0  0  0  0  0  0  0  0  0  0
    4.0068    2.6861   -1.2223 H   0  0  0  0  0  0  0  0  0  0  0  0
    4.5994   -0.2196   -0.2491 H   0  0  0  0  0  0  0  0  0  0  0  0
    4.5291    0.3186   -1.9957 H   0  0  0  0  0  0  0  0  0  0  0  0
    2.1824    1.0799   -1.7061 H   0  0  0  0  0  0  0  0  0  0  0  0
    2.3171    0.6846    1.1872 H   0  0  0  0  0  0  0  0  0  0  0  0
    1.3910   -1.3737   -0.6821 H   0  0  0  0  0  0  0  0  0  0  0  0
    2.6000   -1.5896    0.5831 H   0  0  0  0  0  0  0  0  0  0  0  0
   -1.4258   -1.3556    1.7118 H   0  0  0  0  0  0  0  0  0  0  0  0
   -1.7076    0.9662    1.5368 H   0  0  0  0  0  0  0  0  0  0  0  0
   -0.2365    1.1649    0.8152 H   0  0  0  0  0  0  0  0  0  0  0  0
   -1.0816   -2.1177   -0.6155 H   0  0  0  0  0  0  0  0  0  0  0  0
   -0.6024   -0.4957   -1.1066 H   0  0  0  0  0  0  0  0  0  0  0  0
   -3.1042   -1.3330   -1.4504 H   0  0  0  0  0  0  0  0  0  0  0  0
   -3.3079   -0.8748    0.2297 H   0  0  0  0  0  0  0  0  0  0  0  0
   -2.4903    1.4663   -0.3826 H   0  0  0  0  0  0  0  0  0  0  0  0
   -2.3374    0.9354   -2.0443 H   0  0  0  0  0  0  0  0  0  0  0  0
   -4.4973    2.1474   -1.6980 H   0  0  0  0  0  0  0  0  0  0  0  0
   -4.8071    0.4600   -2.1391 H   0  0  0  0  0  0  0  0  0  0  0  0
   -4.9729    0.9781   -0.4561 H   0  0  0  0  0  0  0  0  0  0  0  0
    0.4121   -3.0250    2.2863 H   0  0  0  0  0  0  0  0  0  0  0  0
    0.5655   -0.0809    2.7262 H   0  0  0  0  0  0  0  0  0  0  0  0
  1 15  1  0  0  0  0
  2  3  1  0  0  0  0
  2  1  1  0  0  0  0
  2 17  1  0  0  0  0
  3  1  1  0  0  0  0
  3  4  1  0  0  0  0
  4  5  1  0  0  0  0
  4 20  1  0  0  0  0
  5 22  1  0  0  0  0
  5  6  1  0  0  0  0
  6 13  1  0  0  0  0
  6 14  1  0  0  0  0
  7  6  1  0  0  0  0
  7  8  1  0  0  0  0
  7 23  1  1  0  0  0
  8 24  1  0  0  0  0
  9  7  1  0  0  0  0
 10  9  1  0  0  0  0
 10 29  1  0  0  0  0
 11 10  1  0  0  0  0
 11 30  1  0  0  0  0
 12 11  1  0  0  0  0
 12 34  1  0  0  0  0
 13 35  1  0  0  0  0
 14 36  1  0  0  0  0
 16  1  1  0  0  0  0
 18  2  1  0  0  0  0
 19  3  1  0  0  0  0
 21  5  1  0  0  0  0
 25  8  1  0  0  0  0
 26  9  1  0  0  0  0
 27  9  1  0  0  0  0
 28 10  1  0  0  0  0
 31 11  1  0  0  0  0
 32 12  1  0  0  0  0
 33 12  1  0  0  0  0
M  END
