omegapdb_2f7p_05.xyz
 OpenBabel12161914463D

 34 35  0  0  1  0  0  0  0  0999 V2000
   -1.2848   -0.2677   -0.4556 C   0  0  1  0  0  0  0  0  0  0  0  0
    0.0509    0.2347   -0.1667 N   0  0  0  0  0  0  0  0  0  0  0  0
    1.1129   -0.7331   -0.4557 C   0  0  0  0  0  0  0  0  0  0  0  0
    2.4859   -0.1406   -0.2348 C   0  0  0  0  0  0  0  0  0  0  0  0
    2.7072    0.8478    0.7247 C   0  0  0  0  0  0  0  0  0  0  0  0
    3.9874    1.3453    0.9422 C   0  0  0  0  0  0  0  0  0  0  0  0
    5.0623    0.8645    0.2001 C   0  0  0  0  0  0  0  0  0  0  0  0
    4.8485   -0.1181   -0.7622 C   0  0  0  0  0  0  0  0  0  0  0  0
    3.5672   -0.6158   -0.9752 C   0  0  0  0  0  0  0  0  0  0  0  0
   -1.7662   -1.2584    0.6437 C   0  0  1  0  0  0  0  0  0  0  0  0
   -1.0916   -1.0106    1.8636 O   0  0  0  0  0  0  0  0  0  0  0  0
   -3.2908   -0.9838    0.8282 C   0  0  1  0  0  0  0  0  0  0  0  0
   -3.5544   -0.4487    2.1078 O   0  0  0  0  0  0  0  0  0  0  0  0
   -3.6591    0.1031   -0.2155 C   0  0  1  0  0  0  0  0  0  0  0  0
   -4.7023    0.9163    0.2259 O   0  0  0  0  0  0  0  0  0  0  0  0
   -2.3358    0.8451   -0.4364 C   0  0  2  0  0  0  0  0  0  0  0  0
   -2.2970    1.9862   -1.8388 S   0  0  0  0  0  0  0  0  0  0  0  0
   -1.3195   -0.7826   -1.4313 H   0  0  0  0  0  0  0  0  0  0  0  0
    0.2131    1.0628   -0.7383 H   0  0  0  0  0  0  0  0  0  0  0  0
    0.9703   -1.5966    0.2115 H   0  0  0  0  0  0  0  0  0  0  0  0
    1.0422   -1.1240   -1.4855 H   0  0  0  0  0  0  0  0  0  0  0  0
    1.8665    1.2361    1.2951 H   0  0  0  0  0  0  0  0  0  0  0  0
    4.1435    2.1178    1.6915 H   0  0  0  0  0  0  0  0  0  0  0  0
    6.0625    1.2537    0.3709 H   0  0  0  0  0  0  0  0  0  0  0  0
    5.6817   -0.4994   -1.3485 H   0  0  0  0  0  0  0  0  0  0  0  0
    3.4041   -1.3850   -1.7285 H   0  0  0  0  0  0  0  0  0  0  0  0
   -1.5853   -2.2985    0.3448 H   0  0  0  0  0  0  0  0  0  0  0  0
   -0.4179   -0.3389    1.6340 H   0  0  0  0  0  0  0  0  0  0  0  0
   -3.8892   -1.8913    0.6916 H   0  0  0  0  0  0  0  0  0  0  0  0
   -2.6884   -0.4334    2.5554 H   0  0  0  0  0  0  0  0  0  0  0  0
   -3.9719   -0.3687   -1.1577 H   0  0  0  0  0  0  0  0  0  0  0  0
   -4.6047    0.9309    1.1934 H   0  0  0  0  0  0  0  0  0  0  0  0
   -2.1495    1.4741    0.4425 H   0  0  0  0  0  0  0  0  0  0  0  0
   -2.5975    1.0765   -2.7807 H   0  0  0  0  0  0  0  0  0  0  0  0
  1 16  1  6  0  0  0
  1  2  1  0  0  0  0
  3  4  1  0  0  0  0
  3  2  1  0  0  0  0
  3 20  1  0  0  0  0
  4  5  2  0  0  0  0
  5  6  1  0  0  0  0
  5 22  1  0  0  0  0
  6 23  1  0  0  0  0
  7 24  1  0  0  0  0
  7  6  2  0  0  0  0
  8  7  1  0  0  0  0
  9  8  2  0  0  0  0
  9  4  1  0  0  0  0
 10  1  1  6  0  0  0
 10 12  1  0  0  0  0
 10 11  1  0  0  0  0
 12 14  1  6  0  0  0
 12 13  1  0  0  0  0
 13 30  1  0  0  0  0
 14 16  1  6  0  0  0
 14 15  1  0  0  0  0
 15 32  1  0  0  0  0
 16 33  1  1  0  0  0
 17 16  1  0  0  0  0
 18  1  1  0  0  0  0
 19  2  1  0  0  0  0
 21  3  1  0  0  0  0
 25  8  1  0  0  0  0
 26  9  1  0  0  0  0
 27 10  1  0  0  0  0
 28 11  1  0  0  0  0
 29 12  1  0  0  0  0
 31 14  1  0  0  0  0
 34 17  1  0  0  0  0
M  END
