omegapdb_2f7p_09.xyz
 OpenBabel12161914463D

 34 35  0  0  1  0  0  0  0  0999 V2000
   -1.2000   -0.3037   -0.3626 C   0  0  1  0  0  0  0  0  0  0  0  0
    0.1303    0.2231   -0.1568 N   0  0  0  0  0  0  0  0  0  0  0  0
    1.1739   -0.7784   -0.3507 C   0  0  0  0  0  0  0  0  0  0  0  0
    2.5643   -0.1949   -0.2166 C   0  0  0  0  0  0  0  0  0  0  0  0
    3.6433   -1.0354    0.0599 C   0  0  0  0  0  0  0  0  0  0  0  0
    4.9346   -0.5278    0.1544 C   0  0  0  0  0  0  0  0  0  0  0  0
    5.1628    0.8335   -0.0243 C   0  0  0  0  0  0  0  0  0  0  0  0
    4.0914    1.6787   -0.2949 C   0  0  0  0  0  0  0  0  0  0  0  0
    2.8014    1.1672   -0.3919 C   0  0  0  0  0  0  0  0  0  0  0  0
   -1.7350   -1.2056    0.7824 C   0  0  1  0  0  0  0  0  0  0  0  0
   -1.2415   -0.7170    2.0107 O   0  0  0  0  0  0  0  0  0  0  0  0
   -3.2909   -1.0729    0.7229 C   0  0  1  0  0  0  0  0  0  0  0  0
   -3.7757   -0.7281    2.0049 O   0  0  0  0  0  0  0  0  0  0  0  0
   -3.5737    0.0380   -0.3218 C   0  0  1  0  0  0  0  0  0  0  0  0
   -4.6581    0.8187    0.1315 O   0  0  0  0  0  0  0  0  0  0  0  0
   -2.2548    0.8015   -0.4355 C   0  0  2  0  0  0  0  0  0  0  0  0
   -2.2004    1.8043   -1.9424 S   0  0  0  0  0  0  0  0  0  0  0  0
   -1.2232   -0.8686   -1.3079 H   0  0  0  0  0  0  0  0  0  0  0  0
    0.1712    0.5363    0.8136 H   0  0  0  0  0  0  0  0  0  0  0  0
    1.0787   -1.6342    0.3439 H   0  0  0  0  0  0  0  0  0  0  0  0
    1.0476   -1.1910   -1.3629 H   0  0  0  0  0  0  0  0  0  0  0  0
    3.4738   -2.1014    0.2015 H   0  0  0  0  0  0  0  0  0  0  0  0
    5.7658   -1.1954    0.3689 H   0  0  0  0  0  0  0  0  0  0  0  0
    6.1705    1.2343    0.0483 H   0  0  0  0  0  0  0  0  0  0  0  0
    4.2589    2.7446   -0.4293 H   0  0  0  0  0  0  0  0  0  0  0  0
    1.9614    1.8232   -0.5994 H   0  0  0  0  0  0  0  0  0  0  0  0
   -1.4276   -2.2544    0.6480 H   0  0  0  0  0  0  0  0  0  0  0  0
   -2.0363   -0.5734    2.5567 H   0  0  0  0  0  0  0  0  0  0  0  0
   -3.7512   -2.0170    0.4093 H   0  0  0  0  0  0  0  0  0  0  0  0
   -4.3885    0.0166    1.8784 H   0  0  0  0  0  0  0  0  0  0  0  0
   -3.8061   -0.4372   -1.2854 H   0  0  0  0  0  0  0  0  0  0  0  0
   -4.8069    1.5358   -0.5012 H   0  0  0  0  0  0  0  0  0  0  0  0
   -2.1569    1.4514    0.4402 H   0  0  0  0  0  0  0  0  0  0  0  0
   -0.9034    2.1290   -1.8362 H   0  0  0  0  0  0  0  0  0  0  0  0
  1 16  1  6  0  0  0
  1  2  1  0  0  0  0
  2 19  1  0  0  0  0
  3  4  1  0  0  0  0
  3  2  1  0  0  0  0
  3 20  1  0  0  0  0
  4  5  2  0  0  0  0
  5  6  1  0  0  0  0
  5 22  1  0  0  0  0
  6 23  1  0  0  0  0
  7 24  1  0  0  0  0
  7  6  2  0  0  0  0
  8  7  1  0  0  0  0
  9  8  2  0  0  0  0
  9  4  1  0  0  0  0
 10  1  1  6  0  0  0
 10 11  1  0  0  0  0
 11 28  1  0  0  0  0
 12 14  1  6  0  0  0
 12 10  1  0  0  0  0
 12 13  1  0  0  0  0
 14 16  1  6  0  0  0
 14 15  1  0  0  0  0
 16 33  1  1  0  0  0
 17 34  1  0  0  0  0
 17 16  1  0  0  0  0
 18  1  1  0  0  0  0
 21  3  1  0  0  0  0
 25  8  1  0  0  0  0
 26  9  1  0  0  0  0
 27 10  1  0  0  0  0
 29 12  1  0  0  0  0
 30 13  1  0  0  0  0
 31 14  1  0  0  0  0
 32 15  1  0  0  0  0
M  END
