omegapdb_1gs5_20.xyz
 OpenBabel12161914463D

 24 23  0  0  1  0  0  0  0  0999 V2000
   -0.5818   -0.9799   -0.3098 C   0  0  2  0  0  0  0  0  0  0  0  0
   -1.1096   -1.6990    0.9321 C   0  0  0  0  0  0  0  0  0  0  0  0
   -1.9795   -1.2567    1.6367 O   0  0  0  0  0  0  0  0  0  0  0  0
   -0.5280   -2.8744    1.2208 O   0  0  0  0  0  0  0  0  0  0  0  0
    0.9432   -0.7875   -0.2771 C   0  0  0  0  0  0  0  0  0  0  0  0
    1.4305   -0.0311    0.9512 C   0  0  0  0  0  0  0  0  0  0  0  0
    2.9389    0.1420    0.9265 C   0  0  0  0  0  0  0  0  0  0  0  0
    3.6626   -0.3363    0.0952 O   0  0  0  0  0  0  0  0  0  0  0  0
    3.4516    0.8881    1.9319 O   0  0  0  0  0  0  0  0  0  0  0  0
   -1.2854    0.2772   -0.3893 N   0  0  0  0  0  0  0  0  0  0  0  0
   -1.3504    0.9789   -1.5551 C   0  0  0  0  0  0  0  0  0  0  0  0
   -0.7094    0.6574   -2.5453 O   0  0  0  0  0  0  0  0  0  0  0  0
   -2.2718    2.1834   -1.5349 C   0  0  0  0  0  0  0  0  0  0  0  0
   -0.8221   -1.5894   -1.1935 H   0  0  0  0  0  0  0  0  0  0  0  0
    0.1493   -3.0879    0.5634 H   0  0  0  0  0  0  0  0  0  0  0  0
    1.4570   -1.7531   -0.3490 H   0  0  0  0  0  0  0  0  0  0  0  0
    1.2081   -0.2296   -1.1781 H   0  0  0  0  0  0  0  0  0  0  0  0
    0.9571    0.9571    1.0001 H   0  0  0  0  0  0  0  0  0  0  0  0
    1.1555   -0.5549    1.8786 H   0  0  0  0  0  0  0  0  0  0  0  0
    2.7415    1.1965    2.5117 H   0  0  0  0  0  0  0  0  0  0  0  0
   -1.9596    0.4372    0.3495 H   0  0  0  0  0  0  0  0  0  0  0  0
   -1.7227    3.0530   -1.9071 H   0  0  0  0  0  0  0  0  0  0  0  0
   -3.1070    2.0044   -2.2196 H   0  0  0  0  0  0  0  0  0  0  0  0
   -2.6682    2.4047   -0.5391 H   0  0  0  0  0  0  0  0  0  0  0  0
  1 14  1  6  0  0  0
  1  5  1  0  0  0  0
  1  2  1  0  0  0  0
  2  4  1  0  0  0  0
  2  3  2  0  0  0  0
  5  6  1  0  0  0  0
  6 18  1  0  0  0  0
  6 19  1  0  0  0  0
  7  6  1  0  0  0  0
  7  9  1  0  0  0  0
  8  7  2  0  0  0  0
  9 20  1  0  0  0  0
 10  1  1  0  0  0  0
 10 21  1  0  0  0  0
 11 13  1  0  0  0  0
 11 10  1  0  0  0  0
 12 11  2  0  0  0  0
 13 24  1  0  0  0  0
 15  4  1  0  0  0  0
 16  5  1  0  0  0  0
 17  5  1  0  0  0  0
 22 13  1  0  0  0  0
 23 13  1  0  0  0  0
M  END
