omegapdb_1m5f_03.xyz
 OpenBabel12161914463D

 25 25  0  0  1  0  0  0  0  0999 V2000
   -1.0228   -3.7237   -0.6967 O   0  0  0  0  0  0  0  0  0  0  0  0
   -0.4187   -2.5472   -0.7855 C   0  0  0  0  0  0  0  0  0  0  0  0
    0.7229   -2.4449   -1.1793 O   0  0  0  0  0  0  0  0  0  0  0  0
   -1.2395   -1.3742   -0.3561 C   0  0  0  0  0  0  0  0  0  0  0  0
   -2.4137   -1.5691    0.1863 N   0  0  0  0  0  0  0  0  0  0  0  0
   -2.8627   -0.3277    0.5474 O   0  0  0  0  0  0  0  0  0  0  0  0
   -1.9476    0.6028    0.2174 C   0  0  0  0  0  0  0  0  0  0  0  0
   -0.8906    0.0035   -0.3977 C   0  0  0  0  0  0  0  0  0  0  0  0
    0.4357    0.5574   -0.8038 C   0  0  0  0  0  0  0  0  0  0  0  0
    1.4411    0.3538    0.3461 C   0  0  2  0  0  0  0  0  0  0  0  0
    1.2521    1.3918    1.3430 N   0  0  0  0  0  0  0  0  0  0  0  0
    2.8749    0.2569   -0.1830 C   0  0  0  0  0  0  0  0  0  0  0  0
    3.7143    1.0940    0.0375 O   0  0  0  0  0  0  0  0  0  0  0  0
    3.1410   -0.8268   -0.9251 O   0  0  0  0  0  0  0  0  0  0  0  0
   -2.2195    2.0170    0.5903 C   0  0  0  0  0  0  0  0  0  0  0  0
   -1.9176   -3.6023   -0.3326 H   0  0  0  0  0  0  0  0  0  0  0  0
    0.7731    0.0676   -1.7195 H   0  0  0  0  0  0  0  0  0  0  0  0
    0.3694    1.6306   -1.0172 H   0  0  0  0  0  0  0  0  0  0  0  0
    1.2123   -0.6099    0.8173 H   0  0  0  0  0  0  0  0  0  0  0  0
    1.7750    2.2117    1.0384 H   0  0  0  0  0  0  0  0  0  0  0  0
    1.6935    1.1051    2.2126 H   0  0  0  0  0  0  0  0  0  0  0  0
    2.3573   -1.4064   -0.9934 H   0  0  0  0  0  0  0  0  0  0  0  0
   -1.3173    2.4429    1.0412 H   0  0  0  0  0  0  0  0  0  0  0  0
   -3.0448    2.0750    1.3011 H   0  0  0  0  0  0  0  0  0  0  0  0
   -2.4676    2.6223   -0.2885 H   0  0  0  0  0  0  0  0  0  0  0  0
  1 16  1  0  0  0  0
  2  1  1  0  0  0  0
  2  4  1  0  0  0  0
  3  2  2  0  0  0  0
  4  5  2  0  0  0  0
  5  6  1  0  0  0  0
  7  6  1  0  0  0  0
  7 15  1  0  0  0  0
  8  4  1  0  0  0  0
  8  7  2  0  0  0  0
  9  8  1  0  0  0  0
  9 10  1  0  0  0  0
 10 19  1  1  0  0  0
 10 11  1  0  0  0  0
 11 21  1  0  0  0  0
 12 13  2  0  0  0  0
 12 10  1  0  0  0  0
 14 12  1  0  0  0  0
 15 23  1  0  0  0  0
 15 24  1  0  0  0  0
 17  9  1  0  0  0  0
 18  9  1  0  0  0  0
 20 11  1  0  0  0  0
 22 14  1  0  0  0  0
 25 15  1  0  0  0  0
M  END
