omegapdb_1m5f_07.xyz
 OpenBabel12161914463D

 25 25  0  0  1  0  0  0  0  0999 V2000
   -1.4345   -3.6350   -1.4905 O   0  0  0  0  0  0  0  0  0  0  0  0
   -0.6932   -2.7692   -0.7964 C   0  0  0  0  0  0  0  0  0  0  0  0
    0.4239   -3.0249   -0.4189 O   0  0  0  0  0  0  0  0  0  0  0  0
   -1.3486   -1.4518   -0.5314 C   0  0  0  0  0  0  0  0  0  0  0  0
   -2.5422   -1.2166   -1.0115 N   0  0  0  0  0  0  0  0  0  0  0  0
   -2.8495    0.0614   -0.6352 O   0  0  0  0  0  0  0  0  0  0  0  0
   -1.8295    0.5854    0.0745 C   0  0  0  0  0  0  0  0  0  0  0  0
   -0.8318   -0.3388    0.1917 C   0  0  0  0  0  0  0  0  0  0  0  0
    0.4929   -0.2461    0.8798 C   0  0  0  0  0  0  0  0  0  0  0  0
    1.6421    0.1499   -0.0598 C   0  0  2  0  0  0  0  0  0  0  0  0
    2.9179    0.0893    0.6601 N   0  0  0  0  0  0  0  0  0  0  0  0
    1.4198    1.5927   -0.5353 C   0  0  0  0  0  0  0  0  0  0  0  0
    0.6658    1.8920   -1.4261 O   0  0  0  0  0  0  0  0  0  0  0  0
    2.1109    2.4988    0.1632 O   0  0  0  0  0  0  0  0  0  0  0  0
   -1.9656    1.9946    0.5324 C   0  0  0  0  0  0  0  0  0  0  0  0
   -2.2914   -3.2270   -1.7074 H   0  0  0  0  0  0  0  0  0  0  0  0
    0.4536    0.4733    1.7084 H   0  0  0  0  0  0  0  0  0  0  0  0
    0.7339   -1.2278    1.3000 H   0  0  0  0  0  0  0  0  0  0  0  0
    1.6033   -0.5076   -0.9361 H   0  0  0  0  0  0  0  0  0  0  0  0
    3.6843   -0.0705    0.0120 H   0  0  0  0  0  0  0  0  0  0  0  0
    2.9232   -0.6807    1.3216 H   0  0  0  0  0  0  0  0  0  0  0  0
    2.6803    1.9780    0.7732 H   0  0  0  0  0  0  0  0  0  0  0  0
   -3.0169    2.2669    0.6411 H   0  0  0  0  0  0  0  0  0  0  0  0
   -1.4496    2.1470    1.4853 H   0  0  0  0  0  0  0  0  0  0  0  0
   -1.4989    2.6667   -0.1950 H   0  0  0  0  0  0  0  0  0  0  0  0
  1  2  1  0  0  0  0
  2  4  1  0  0  0  0
  2  3  2  0  0  0  0
  4  8  1  0  0  0  0
  5  6  1  0  0  0  0
  5  4  2  0  0  0  0
  6  7  1  0  0  0  0
  7  8  2  0  0  0  0
  7 15  1  0  0  0  0
  8  9  1  0  0  0  0
  9 18  1  0  0  0  0
  9 17  1  0  0  0  0
 10 19  1  6  0  0  0
 10 11  1  0  0  0  0
 10  9  1  0  0  0  0
 11 21  1  0  0  0  0
 12 10  1  0  0  0  0
 12 14  1  0  0  0  0
 13 12  2  0  0  0  0
 14 22  1  0  0  0  0
 15 23  1  0  0  0  0
 15 24  1  0  0  0  0
 16  1  1  0  0  0  0
 20 11  1  0  0  0  0
 25 15  1  0  0  0  0
M  END
