omegapdb_2f7p_16.xyz
 OpenBabel12161914463D

 34 35  0  0  1  0  0  0  0  0999 V2000
   -0.7904   -0.2468   -0.2675 C   0  0  1  0  0  0  0  0  0  0  0  0
   -0.3700    0.6288    0.8367 N   0  0  0  0  0  0  0  0  0  0  0  0
    0.8819    0.2304    1.5053 C   0  0  0  0  0  0  0  0  0  0  0  0
    2.1300    0.2585    0.6392 C   0  0  0  0  0  0  0  0  0  0  0  0
    2.8220   -0.9178    0.3452 C   0  0  0  0  0  0  0  0  0  0  0  0
    3.9561   -0.8934   -0.4633 C   0  0  0  0  0  0  0  0  0  0  0  0
    4.4142    0.3116   -0.9858 C   0  0  0  0  0  0  0  0  0  0  0  0
    3.7353    1.4912   -0.6931 C   0  0  0  0  0  0  0  0  0  0  0  0
    2.6023    1.4636    0.1130 C   0  0  0  0  0  0  0  0  0  0  0  0
   -1.6611   -1.4012    0.2752 C   0  0  1  0  0  0  0  0  0  0  0  0
   -1.1334   -2.1191    1.3594 O   0  0  0  0  0  0  0  0  0  0  0  0
   -2.9797   -0.6889    0.6041 C   0  0  1  0  0  0  0  0  0  0  0  0
   -2.8623   -0.0205    1.8506 O   0  0  0  0  0  0  0  0  0  0  0  0
   -3.1820    0.3347   -0.5482 C   0  0  1  0  0  0  0  0  0  0  0  0
   -3.7084    1.5514   -0.0878 O   0  0  0  0  0  0  0  0  0  0  0  0
   -1.7726    0.5033   -1.1972 C   0  0  2  0  0  0  0  0  0  0  0  0
   -1.6770   -0.0263   -2.9371 S   0  0  0  0  0  0  0  0  0  0  0  0
    0.0805   -0.6245   -0.8150 H   0  0  0  0  0  0  0  0  0  0  0  0
   -0.2842    1.5864    0.5042 H   0  0  0  0  0  0  0  0  0  0  0  0
    0.9950    0.9001    2.3662 H   0  0  0  0  0  0  0  0  0  0  0  0
    0.7330   -0.7752    1.9053 H   0  0  0  0  0  0  0  0  0  0  0  0
    2.4641   -1.8638    0.7498 H   0  0  0  0  0  0  0  0  0  0  0  0
    4.4817   -1.8192   -0.6844 H   0  0  0  0  0  0  0  0  0  0  0  0
    5.2992    0.3325   -1.6168 H   0  0  0  0  0  0  0  0  0  0  0  0
    4.0888    2.4383   -1.0939 H   0  0  0  0  0  0  0  0  0  0  0  0
    2.0802    2.3917    0.3435 H   0  0  0  0  0  0  0  0  0  0  0  0
   -1.8164   -2.1258   -0.5330 H   0  0  0  0  0  0  0  0  0  0  0  0
   -1.4798   -1.6893    2.1567 H   0  0  0  0  0  0  0  0  0  0  0  0
   -3.8256   -1.3743    0.7025 H   0  0  0  0  0  0  0  0  0  0  0  0
   -1.9890    0.4330    1.8304 H   0  0  0  0  0  0  0  0  0  0  0  0
   -3.8783   -0.0722   -1.2923 H   0  0  0  0  0  0  0  0  0  0  0  0
   -3.6780    1.5062    0.8819 H   0  0  0  0  0  0  0  0  0  0  0  0
   -1.5311    1.5711   -1.2338 H   0  0  0  0  0  0  0  0  0  0  0  0
   -2.1450   -1.2746   -2.7646 H   0  0  0  0  0  0  0  0  0  0  0  0
  1 16  1  6  0  0  0
  1  2  1  0  0  0  0
  2  3  1  0  0  0  0
  3 21  1  0  0  0  0
  3 20  1  0  0  0  0
  4  3  1  0  0  0  0
  5  4  1  0  0  0  0
  5 22  1  0  0  0  0
  6  5  2  0  0  0  0
  7  8  2  0  0  0  0
  7  6  1  0  0  0  0
  8  9  1  0  0  0  0
  9 26  1  0  0  0  0
  9  4  2  0  0  0  0
 10  1  1  6  0  0  0
 10 12  1  0  0  0  0
 10 11  1  0  0  0  0
 11 28  1  0  0  0  0
 12 14  1  6  0  0  0
 12 29  1  0  0  0  0
 12 13  1  0  0  0  0
 14 16  1  6  0  0  0
 14 15  1  0  0  0  0
 15 32  1  0  0  0  0
 16 33  1  1  0  0  0
 17 34  1  0  0  0  0
 17 16  1  0  0  0  0
 18  1  1  0  0  0  0
 19  2  1  0  0  0  0
 23  6  1  0  0  0  0
 24  7  1  0  0  0  0
 25  8  1  0  0  0  0
 27 10  1  0  0  0  0
 30 13  1  0  0  0  0
 31 14  1  0  0  0  0
M  END
