omegacsd_DIAVER_05.xyz
 OpenBabel12161914463D

 35 36  0  0  0  0  0  0  0  0999 V2000
   -3.6235    0.5975    1.2239 N   0  0  0  0  0  0  0  0  0  0  0  0
   -4.0383   -0.6778    1.2822 C   0  0  0  0  0  0  0  0  0  0  0  0
   -3.6599   -1.6823    0.4848 N   0  0  0  0  0  0  0  0  0  0  0  0
   -2.7744   -1.3858   -0.4633 C   0  0  0  0  0  0  0  0  0  0  0  0
   -2.2394   -0.0915   -0.6236 C   0  0  0  0  0  0  0  0  0  0  0  0
   -2.7284    0.8451    0.2702 C   0  0  0  0  0  0  0  0  0  0  0  0
   -1.1337    0.2444   -1.5946 C   0  0  0  0  0  0  0  0  0  0  0  0
    0.2507    0.1473   -0.9775 C   0  0  0  0  0  0  0  0  0  0  0  0
    0.9973    1.3063   -0.7350 C   0  0  0  0  0  0  0  0  0  0  0  0
    2.2558    1.2446   -0.1549 C   0  0  0  0  0  0  0  0  0  0  0  0
    2.8038   -0.0155    0.1848 C   0  0  0  0  0  0  0  0  0  0  0  0
    2.0612   -1.1612   -0.0592 C   0  0  0  0  0  0  0  0  0  0  0  0
    0.7897   -1.0812   -0.6306 C   0  0  0  0  0  0  0  0  0  0  0  0
    4.0434    0.0026    0.7339 O   0  0  0  0  0  0  0  0  0  0  0  0
    4.6377   -1.2417    1.0313 C   0  0  0  0  0  0  0  0  0  0  0  0
    3.0339    2.3224    0.1155 O   0  0  0  0  0  0  0  0  0  0  0  0
    2.5131    3.5901   -0.2134 C   0  0  0  0  0  0  0  0  0  0  0  0
   -2.3632   -2.4379   -1.2561 N   0  0  0  0  0  0  0  0  0  0  0  0
   -4.9234   -0.9903    2.2704 N   0  0  0  0  0  0  0  0  0  0  0  0
   -2.3789    1.8784    0.2171 H   0  0  0  0  0  0  0  0  0  0  0  0
   -1.1865   -0.3914   -2.4885 H   0  0  0  0  0  0  0  0  0  0  0  0
   -1.2893    1.2660   -1.9581 H   0  0  0  0  0  0  0  0  0  0  0  0
    0.5839    2.2676   -1.0217 H   0  0  0  0  0  0  0  0  0  0  0  0
    2.4644   -2.1367    0.1905 H   0  0  0  0  0  0  0  0  0  0  0  0
    0.2343   -1.9974   -0.8124 H   0  0  0  0  0  0  0  0  0  0  0  0
    5.6329   -1.0143    1.4153 H   0  0  0  0  0  0  0  0  0  0  0  0
    4.0682   -1.7875    1.7956 H   0  0  0  0  0  0  0  0  0  0  0  0
    4.7298   -1.8692    0.1345 H   0  0  0  0  0  0  0  0  0  0  0  0
    1.5842    3.7950    0.3337 H   0  0  0  0  0  0  0  0  0  0  0  0
    2.3239    3.6790   -1.2909 H   0  0  0  0  0  0  0  0  0  0  0  0
    3.2725    4.3155    0.0819 H   0  0  0  0  0  0  0  0  0  0  0  0
   -2.9573   -3.2506   -1.1470 H   0  0  0  0  0  0  0  0  0  0  0  0
   -2.1654   -2.2168   -2.2229 H   0  0  0  0  0  0  0  0  0  0  0  0
   -5.4314   -1.8549    2.1643 H   0  0  0  0  0  0  0  0  0  0  0  0
   -5.3879   -0.2179    2.7213 H   0  0  0  0  0  0  0  0  0  0  0  0
  1  2  2  0  0  0  0
  2 19  1  0  0  0  0
  3  2  1  0  0  0  0
  4  3  2  0  0  0  0
  5  4  1  0  0  0  0
  5  6  2  0  0  0  0
  6  1  1  0  0  0  0
  7  8  1  0  0  0  0
  7  5  1  0  0  0  0
  8  9  2  0  0  0  0
  8 13  1  0  0  0  0
  9 10  1  0  0  0  0
 10 16  1  0  0  0  0
 10 11  2  0  0  0  0
 11 14  1  0  0  0  0
 12 11  1  0  0  0  0
 12 24  1  0  0  0  0
 13 12  2  0  0  0  0
 14 15  1  0  0  0  0
 15 26  1  0  0  0  0
 15 27  1  0  0  0  0
 17 31  1  0  0  0  0
 17 16  1  0  0  0  0
 17 29  1  0  0  0  0
 18 32  1  0  0  0  0
 18  4  1  0  0  0  0
 19 35  1  0  0  0  0
 20  6  1  0  0  0  0
 21  7  1  0  0  0  0
 22  7  1  0  0  0  0
 23  9  1  0  0  0  0
 25 13  1  0  0  0  0
 28 15  1  0  0  0  0
 30 17  1  0  0  0  0
 33 18  1  0  0  0  0
 34 19  1  0  0  0  0
M  END
