omegacsd_FIBREN_02.xyz
 OpenBabel12161914463D

 39 41  0  0  1  0  0  0  0  0999 V2000
   -3.0636   -1.9657   -0.8656 N   0  0  0  0  0  0  0  0  0  0  0  0
   -1.9005   -1.8094   -1.5089 C   0  0  0  0  0  0  0  0  0  0  0  0
   -0.9821   -0.8484   -1.3057 N   0  0  0  0  0  0  0  0  0  0  0  0
   -1.2169    0.0648   -0.3579 C   0  0  0  0  0  0  0  0  0  0  0  0
   -2.4074   -0.0028    0.3819 C   0  0  1  0  0  0  0  0  0  0  0  0
   -3.2520   -1.0384    0.0594 C   0  0  0  0  0  0  0  0  0  0  0  0
   -4.3374   -0.9365    0.8773 O   0  0  0  0  0  0  0  0  0  0  0  0
   -4.0749    0.1709    1.6540 C   0  0  0  0  0  0  0  0  0  0  0  0
   -2.9549    0.7636    1.4118 N   0  0  0  0  0  0  0  0  0  0  0  0
   -5.1157    0.5251    2.6533 C   0  0  0  0  0  0  0  0  0  0  0  0
   -0.3322    1.0661   -0.1348 N   0  0  0  0  0  0  0  0  0  0  0  0
    1.0246    1.0307   -0.6548 C   0  0  1  0  0  0  0  0  0  0  0  0
    1.5519    2.4654   -0.7306 C   0  0  0  0  0  0  0  0  0  0  0  0
    2.7794    2.6097   -1.5998 C   0  0  0  0  0  0  0  0  0  0  0  0
    3.1254    1.8515   -2.4756 O   0  0  0  0  0  0  0  0  0  0  0  0
    3.4562    3.7391   -1.3161 O   0  0  0  0  0  0  0  0  0  0  0  0
    1.9542    0.1022    0.1260 C   0  0  0  0  0  0  0  0  0  0  0  0
    2.1052    0.2196    1.5070 C   0  0  0  0  0  0  0  0  0  0  0  0
    2.9842   -0.6137    2.1913 C   0  0  0  0  0  0  0  0  0  0  0  0
    3.7200   -1.5757    1.5049 C   0  0  0  0  0  0  0  0  0  0  0  0
    3.5698   -1.7048    0.1280 C   0  0  0  0  0  0  0  0  0  0  0  0
    2.6905   -0.8699   -0.5535 C   0  0  0  0  0  0  0  0  0  0  0  0
   -1.5829   -2.8008   -2.5936 C   0  0  0  0  0  0  0  0  0  0  0  0
   -5.2812   -0.3041    3.3473 H   0  0  0  0  0  0  0  0  0  0  0  0
   -6.0667    0.7410    2.1571 H   0  0  0  0  0  0  0  0  0  0  0  0
   -4.8026    1.4041    3.2172 H   0  0  0  0  0  0  0  0  0  0  0  0
   -0.5453    1.6443    0.6694 H   0  0  0  0  0  0  0  0  0  0  0  0
    0.9527    0.6325   -1.6693 H   0  0  0  0  0  0  0  0  0  0  0  0
    0.7697    3.1000   -1.1670 H   0  0  0  0  0  0  0  0  0  0  0  0
    1.7696    2.8587    0.2678 H   0  0  0  0  0  0  0  0  0  0  0  0
    4.2052    3.7692   -1.9346 H   0  0  0  0  0  0  0  0  0  0  0  0
    1.5366    0.9654    2.0621 H   0  0  0  0  0  0  0  0  0  0  0  0
    3.0974   -0.5076    3.2671 H   0  0  0  0  0  0  0  0  0  0  0  0
    4.4118   -2.2196    2.0423 H   0  0  0  0  0  0  0  0  0  0  0  0
    4.1384   -2.4547   -0.4163 H   0  0  0  0  0  0  0  0  0  0  0  0
    2.5798   -0.9599   -1.6329 H   0  0  0  0  0  0  0  0  0  0  0  0
   -1.7304   -2.3369   -3.5747 H   0  0  0  0  0  0  0  0  0  0  0  0
   -0.5357   -3.1073   -2.5245 H   0  0  0  0  0  0  0  0  0  0  0  0
   -2.2400   -3.6678   -2.5091 H   0  0  0  0  0  0  0  0  0  0  0  0
  1  6  2  0  0  0  0
  2  3  1  0  0  0  0
  2  1  2  0  0  0  0
  3  4  2  0  0  0  0
  4 11  1  0  0  0  0
  5  4  1  1  0  0  0
  5  9  1  0  0  0  0
  6  5  1  0  0  0  0
  6  7  1  0  0  0  0
  7  8  1  0  0  0  0
  8 10  1  0  0  0  0
  9  8  2  0  0  0  0
 10 26  1  0  0  0  0
 10 24  1  0  0  0  0
 11 27  1  0  0  0  0
 12 28  1  6  0  0  0
 12 11  1  0  0  0  0
 12 17  1  0  0  0  0
 13 12  1  0  0  0  0
 13 30  1  0  0  0  0
 14 16  1  0  0  0  0
 14 13  1  0  0  0  0
 15 14  2  0  0  0  0
 17 18  1  0  0  0  0
 18 32  1  0  0  0  0
 18 19  2  0  0  0  0
 19 33  1  0  0  0  0
 20 34  1  0  0  0  0
 20 19  1  0  0  0  0
 21 20  2  0  0  0  0
 22 17  2  0  0  0  0
 22 21  1  0  0  0  0
 23 38  1  0  0  0  0
 23 39  1  0  0  0  0
 23  2  1  0  0  0  0
 25 10  1  0  0  0  0
 29 13  1  0  0  0  0
 31 16  1  0  0  0  0
 35 21  1  0  0  0  0
 36 22  1  0  0  0  0
 37 23  1  0  0  0  0
M  RAD  1   5   2
M  END
