omegapdb_1z1r_10.xyz
 OpenBabel12161914463D

 66 68  0  0  1  0  0  0  0  0999 V2000
    0.8621   -0.5325   -1.2514 C   0  0  2  0  0  0  0  0  0  0  0  0
    0.3778   -1.6454   -2.2003 C   0  0  0  0  0  0  0  0  0  0  0  0
   -0.8848   -2.3305   -1.7214 C   0  0  0  0  0  0  0  0  0  0  0  0
   -0.9485   -2.9505   -0.4709 C   0  0  0  0  0  0  0  0  0  0  0  0
   -2.1402   -3.4750    0.0148 C   0  0  0  0  0  0  0  0  0  0  0  0
   -3.2943   -3.4050   -0.7657 C   0  0  0  0  0  0  0  0  0  0  0  0
   -3.2289   -2.8690   -2.0502 C   0  0  0  0  0  0  0  0  0  0  0  0
   -2.0401   -2.3189   -2.5081 C   0  0  0  0  0  0  0  0  0  0  0  0
   -4.5116   -3.8620   -0.3420 O   0  0  0  0  0  0  0  0  0  0  0  0
   -4.9454   -3.5291    0.9723 C   0  0  0  0  0  0  0  0  0  0  0  0
   -5.5328   -2.1243    1.0913 C   0  0  0  0  0  0  0  0  0  0  0  0
   -4.5455   -0.9749    0.9056 C   0  0  0  0  0  0  0  0  0  0  0  0
   -3.5484   -0.8743    2.0564 C   0  0  0  0  0  0  0  0  0  0  0  0
   -3.6746   -1.5354    3.0761 O   0  0  0  0  0  0  0  0  0  0  0  0
   -2.5130    0.0130    1.9284 N   0  0  0  0  0  0  0  0  0  0  0  0
   -2.0740    0.7290    0.7524 C   0  0  2  0  0  0  0  0  0  0  0  0
   -0.6071    0.3499    0.4939 C   0  0  0  0  0  0  0  0  0  0  0  0
    0.1481    0.0974    1.4233 O   0  0  0  0  0  0  0  0  0  0  0  0
   -0.2376    0.2989   -0.8102 N   0  0  0  0  0  0  0  0  0  0  0  0
   -2.2143    2.2469    0.9167 C   0  0  0  0  0  0  0  0  0  0  0  0
   -2.0936    2.9715   -0.4154 C   0  0  0  0  0  0  0  0  0  0  0  0
   -2.0593    2.3860   -1.4919 O   0  0  0  0  0  0  0  0  0  0  0  0
   -2.0329    4.3240   -0.3386 N   0  0  0  0  0  0  0  0  0  0  0  0
    1.9568    0.3169   -1.9001 C   0  0  2  0  0  0  0  0  0  0  0  0
    3.0151   -0.4972   -2.3848 O   0  0  0  0  0  0  0  0  0  0  0  0
    2.4939    1.3792   -0.9353 C   0  0  0  0  0  0  0  0  0  0  0  0
    3.6508    2.0182   -1.5501 N   0  0  0  0  0  0  0  0  0  0  0  0
    4.5504    3.1089   -0.6920 S   0  0  0  0  0  0  0  0  0  0  0  0
    5.6357    3.5024   -1.5717 O   0  0  0  0  0  0  0  0  0  0  0  0
    3.6245    4.0733   -0.1281 O   0  0  0  0  0  0  0  0  0  0  0  0
    5.2438    2.1762    0.6515 C   0  0  0  0  0  0  0  0  0  0  0  0
    6.3452    1.3614    0.4069 C   0  0  0  0  0  0  0  0  0  0  0  0
    6.8618    0.5936    1.4446 C   0  0  0  0  0  0  0  0  0  0  0  0
    6.2926    0.6576    2.7144 C   0  0  0  0  0  0  0  0  0  0  0  0
    5.2074    1.4983    2.9525 C   0  0  0  0  0  0  0  0  0  0  0  0
    4.6773    2.2648    1.9200 C   0  0  0  0  0  0  0  0  0  0  0  0
    1.2760   -0.9856   -0.3401 H   0  0  0  0  0  0  0  0  0  0  0  0
    1.1890   -2.3721   -2.3279 H   0  0  0  0  0  0  0  0  0  0  0  0
    0.1957   -1.2121   -3.1931 H   0  0  0  0  0  0  0  0  0  0  0  0
   -0.0589   -3.0180    0.1542 H   0  0  0  0  0  0  0  0  0  0  0  0
   -2.1708   -3.9427    0.9958 H   0  0  0  0  0  0  0  0  0  0  0  0
   -4.1358   -2.8492   -2.6500 H   0  0  0  0  0  0  0  0  0  0  0  0
   -2.0121   -1.8663   -3.4974 H   0  0  0  0  0  0  0  0  0  0  0  0
   -4.1405   -3.6582    1.7050 H   0  0  0  0  0  0  0  0  0  0  0  0
   -5.7236   -4.2640    1.1948 H   0  0  0  0  0  0  0  0  0  0  0  0
   -5.9713   -2.0415    2.0924 H   0  0  0  0  0  0  0  0  0  0  0  0
   -6.3433   -2.0244    0.3613 H   0  0  0  0  0  0  0  0  0  0  0  0
   -4.0115   -1.0761   -0.0449 H   0  0  0  0  0  0  0  0  0  0  0  0
   -5.0963   -0.0253    0.8464 H   0  0  0  0  0  0  0  0  0  0  0  0
   -1.8154   -0.0626    2.6605 H   0  0  0  0  0  0  0  0  0  0  0  0
   -2.6805    0.4363   -0.1076 H   0  0  0  0  0  0  0  0  0  0  0  0
   -0.8863    0.6752   -1.4926 H   0  0  0  0  0  0  0  0  0  0  0  0
   -3.2007    2.4569    1.3482 H   0  0  0  0  0  0  0  0  0  0  0  0
   -1.4695    2.6206    1.6292 H   0  0  0  0  0  0  0  0  0  0  0  0
   -2.1377    4.8201    0.5310 H   0  0  0  0  0  0  0  0  0  0  0  0
   -2.0203    4.8475   -1.2003 H   0  0  0  0  0  0  0  0  0  0  0  0
    1.5477    0.8181   -2.7878 H   0  0  0  0  0  0  0  0  0  0  0  0
    3.3423   -1.0247   -1.6418 H   0  0  0  0  0  0  0  0  0  0  0  0
    1.7346    2.1387   -0.7302 H   0  0  0  0  0  0  0  0  0  0  0  0
    2.7550    0.9140    0.0312 H   0  0  0  0  0  0  0  0  0  0  0  0
    4.1987    1.4163   -2.1534 H   0  0  0  0  0  0  0  0  0  0  0  0
    6.7977    1.3462   -0.5810 H   0  0  0  0  0  0  0  0  0  0  0  0
    7.7143   -0.0543    1.2621 H   0  0  0  0  0  0  0  0  0  0  0  0
    6.6988    0.0534    3.5217 H   0  0  0  0  0  0  0  0  0  0  0  0
    4.7718    1.5572    3.9458 H   0  0  0  0  0  0  0  0  0  0  0  0
    3.8359    2.9332    2.0818 H   0  0  0  0  0  0  0  0  0  0  0  0
  1 19  1  0  0  0  0
  1 37  1  1  0  0  0
  2  3  1  0  0  0  0
  2  1  1  0  0  0  0
  3  4  2  0  0  0  0
  4  5  1  0  0  0  0
  4 40  1  0  0  0  0
  5 41  1  0  0  0  0
  6  9  1  0  0  0  0
  6  5  2  0  0  0  0
  7  6  1  0  0  0  0
  8  7  2  0  0  0  0
  8  3  1  0  0  0  0
  9 10  1  0  0  0  0
 10 11  1  0  0  0  0
 10 45  1  0  0  0  0
 10 44  1  0  0  0  0
 11 46  1  0  0  0  0
 12 11  1  0  0  0  0
 12 13  1  0  0  0  0
 13 14  2  0  0  0  0
 15 13  1  0  0  0  0
 15 50  1  0  0  0  0
 16 51  1  6  0  0  0
 16 20  1  0  0  0  0
 16 15  1  0  0  0  0
 17 16  1  0  0  0  0
 17 18  2  0  0  0  0
 19 17  1  0  0  0  0
 20 53  1  0  0  0  0
 20 54  1  0  0  0  0
 21 23  1  0  0  0  0
 21 20  1  0  0  0  0
 22 21  2  0  0  0  0
 23 55  1  0  0  0  0
 24 57  1  6  0  0  0
 24  1  1  0  0  0  0
 24 26  1  0  0  0  0
 25 24  1  0  0  0  0
 25 58  1  0  0  0  0
 26 59  1  0  0  0  0
 26 60  1  0  0  0  0
 27 26  1  0  0  0  0
 27 28  1  0  0  0  0
 28 30  2  0  0  0  0
 28 31  1  0  0  0  0
 29 28  2  0  0  0  0
 31 36  1  0  0  0  0
 32 31  2  0  0  0  0
 32 33  1  0  0  0  0
 33 34  2  0  0  0  0
 34 35  1  0  0  0  0
 34 64  1  0  0  0  0
 35 65  1  0  0  0  0
 36 66  1  0  0  0  0
 36 35  2  0  0  0  0
 38  2  1  0  0  0  0
 39  2  1  0  0  0  0
 42  7  1  0  0  0  0
 43  8  1  0  0  0  0
 47 11  1  0  0  0  0
 48 12  1  0  0  0  0
 49 12  1  0  0  0  0
 52 19  1  0  0  0  0
 56 23  1  0  0  0  0
 61 27  1  0  0  0  0
 62 32  1  0  0  0  0
 63 33  1  0  0  0  0
M  END
