omegapdb_1z1r_17.xyz
 OpenBabel12161914463D

 66 68  0  0  1  0  0  0  0  0999 V2000
    0.8901   -1.8714    0.6217 C   0  0  2  0  0  0  0  0  0  0  0  0
    0.4705   -3.2735    0.1376 C   0  0  0  0  0  0  0  0  0  0  0  0
   -1.0299   -3.4576    0.1035 C   0  0  0  0  0  0  0  0  0  0  0  0
   -1.6717   -3.7863   -1.0921 C   0  0  0  0  0  0  0  0  0  0  0  0
   -3.0573   -3.7810   -1.1906 C   0  0  0  0  0  0  0  0  0  0  0  0
   -3.8155   -3.3883   -0.0935 C   0  0  0  0  0  0  0  0  0  0  0  0
   -3.2006   -3.1706    1.1388 C   0  0  0  0  0  0  0  0  0  0  0  0
   -1.8163   -3.2227    1.2351 C   0  0  0  0  0  0  0  0  0  0  0  0
   -5.1568   -3.1554   -0.2752 O   0  0  0  0  0  0  0  0  0  0  0  0
   -5.5320   -1.7962   -0.0379 C   0  0  0  0  0  0  0  0  0  0  0  0
   -4.7580   -0.8203   -0.9315 C   0  0  0  0  0  0  0  0  0  0  0  0
   -4.8296    0.6434   -0.4758 C   0  0  0  0  0  0  0  0  0  0  0  0
   -4.2281    0.8488    0.9085 C   0  0  0  0  0  0  0  0  0  0  0  0
   -4.9307    0.8454    1.9069 O   0  0  0  0  0  0  0  0  0  0  0  0
   -2.8751    1.0376    1.0238 N   0  0  0  0  0  0  0  0  0  0  0  0
   -1.8108    0.7798    0.0799 C   0  0  2  0  0  0  0  0  0  0  0  0
   -0.7514   -0.0688    0.8137 C   0  0  0  0  0  0  0  0  0  0  0  0
   -0.6701   -0.0304    2.0350 O   0  0  0  0  0  0  0  0  0  0  0  0
    0.0657   -0.8265    0.0419 N   0  0  0  0  0  0  0  0  0  0  0  0
   -1.1815    2.0794   -0.4466 C   0  0  0  0  0  0  0  0  0  0  0  0
   -0.3488    1.8492   -1.6994 C   0  0  0  0  0  0  0  0  0  0  0  0
   -0.3149    0.7777   -2.2944 O   0  0  0  0  0  0  0  0  0  0  0  0
    0.3409    2.9305   -2.1462 N   0  0  0  0  0  0  0  0  0  0  0  0
    2.3715   -1.6094    0.3379 C   0  0  2  0  0  0  0  0  0  0  0  0
    3.1860   -2.6851    0.7768 O   0  0  0  0  0  0  0  0  0  0  0  0
    2.8398   -0.2959    0.9654 C   0  0  0  0  0  0  0  0  0  0  0  0
    4.2677   -0.1342    0.7092 N   0  0  0  0  0  0  0  0  0  0  0  0
    5.0731    1.0489    1.5611 S   0  0  0  0  0  0  0  0  0  0  0  0
    6.4778    0.6839    1.5096 O   0  0  0  0  0  0  0  0  0  0  0  0
    4.3931    1.2700    2.8282 O   0  0  0  0  0  0  0  0  0  0  0  0
    4.8222    2.4806    0.5564 C   0  0  0  0  0  0  0  0  0  0  0  0
    5.7977    2.8382   -0.3673 C   0  0  0  0  0  0  0  0  0  0  0  0
    5.5926    3.9638   -1.1593 C   0  0  0  0  0  0  0  0  0  0  0  0
    4.4266    4.7146   -1.0220 C   0  0  0  0  0  0  0  0  0  0  0  0
    3.4593    4.3433   -0.0901 C   0  0  0  0  0  0  0  0  0  0  0  0
    3.6561    3.2236    0.7108 C   0  0  0  0  0  0  0  0  0  0  0  0
    0.7239   -1.7993    1.7047 H   0  0  0  0  0  0  0  0  0  0  0  0
    0.8748   -3.4380   -0.8702 H   0  0  0  0  0  0  0  0  0  0  0  0
    0.9420   -4.0228    0.7851 H   0  0  0  0  0  0  0  0  0  0  0  0
   -1.0775   -4.0272   -1.9706 H   0  0  0  0  0  0  0  0  0  0  0  0
   -3.5609   -4.0026   -2.1287 H   0  0  0  0  0  0  0  0  0  0  0  0
   -3.8083   -2.9343    2.0096 H   0  0  0  0  0  0  0  0  0  0  0  0
   -1.3510   -3.0290    2.2003 H   0  0  0  0  0  0  0  0  0  0  0  0
   -6.6051   -1.7563   -0.2495 H   0  0  0  0  0  0  0  0  0  0  0  0
   -5.3980   -1.5440    1.0226 H   0  0  0  0  0  0  0  0  0  0  0  0
   -3.7067   -1.1266   -0.9620 H   0  0  0  0  0  0  0  0  0  0  0  0
   -5.1320   -0.9016   -1.9586 H   0  0  0  0  0  0  0  0  0  0  0  0
   -4.3344    1.2899   -1.2108 H   0  0  0  0  0  0  0  0  0  0  0  0
   -5.8734    0.9628   -0.3986 H   0  0  0  0  0  0  0  0  0  0  0  0
   -2.5611    1.0937    1.9869 H   0  0  0  0  0  0  0  0  0  0  0  0
   -2.1917    0.2254   -0.7818 H   0  0  0  0  0  0  0  0  0  0  0  0
   -0.0362   -0.7634   -0.9647 H   0  0  0  0  0  0  0  0  0  0  0  0
   -0.5786    2.5504    0.3394 H   0  0  0  0  0  0  0  0  0  0  0  0
   -1.9868    2.7848   -0.6863 H   0  0  0  0  0  0  0  0  0  0  0  0
    0.4282    3.7751   -1.6038 H   0  0  0  0  0  0  0  0  0  0  0  0
    0.9512    2.7965   -2.9388 H   0  0  0  0  0  0  0  0  0  0  0  0
    2.5237   -1.5595   -0.7480 H   0  0  0  0  0  0  0  0  0  0  0  0
    3.0578   -2.7805    1.7315 H   0  0  0  0  0  0  0  0  0  0  0  0
    2.3030    0.5555    0.5315 H   0  0  0  0  0  0  0  0  0  0  0  0
    2.6436   -0.2956    2.0485 H   0  0  0  0  0  0  0  0  0  0  0  0
    4.7987   -1.0012    0.7256 H   0  0  0  0  0  0  0  0  0  0  0  0
    6.7019    2.2408   -0.4465 H   0  0  0  0  0  0  0  0  0  0  0  0
    6.3475    4.2588   -1.8826 H   0  0  0  0  0  0  0  0  0  0  0  0
    4.2748    5.5935   -1.6430 H   0  0  0  0  0  0  0  0  0  0  0  0
    2.5518    4.9327    0.0199 H   0  0  0  0  0  0  0  0  0  0  0  0
    2.9275    2.9365    1.4642 H   0  0  0  0  0  0  0  0  0  0  0  0
  1 37  1  1  0  0  0
  2  1  1  0  0  0  0
  2 39  1  0  0  0  0
  3  2  1  0  0  0  0
  3  8  2  0  0  0  0
  4  3  1  0  0  0  0
  5  4  2  0  0  0  0
  5  6  1  0  0  0  0
  6  7  2  0  0  0  0
  7  8  1  0  0  0  0
  7 42  1  0  0  0  0
  8 43  1  0  0  0  0
  9  6  1  0  0  0  0
  9 10  1  0  0  0  0
 10 45  1  0  0  0  0
 11 12  1  0  0  0  0
 11 10  1  0  0  0  0
 12 49  1  0  0  0  0
 12 13  1  0  0  0  0
 13 15  1  0  0  0  0
 13 14  2  0  0  0  0
 15 50  1  0  0  0  0
 16 51  1  6  0  0  0
 16 17  1  0  0  0  0
 16 15  1  0  0  0  0
 17 18  2  0  0  0  0
 19  1  1  0  0  0  0
 19 17  1  0  0  0  0
 20 16  1  0  0  0  0
 20 53  1  0  0  0  0
 21 20  1  0  0  0  0
 22 21  2  0  0  0  0
 23 21  1  0  0  0  0
 23 55  1  0  0  0  0
 24 57  1  6  0  0  0
 24  1  1  0  0  0  0
 24 25  1  0  0  0  0
 24 26  1  0  0  0  0
 25 58  1  0  0  0  0
 26 60  1  0  0  0  0
 27 61  1  0  0  0  0
 27 26  1  0  0  0  0
 27 28  1  0  0  0  0
 28 30  2  0  0  0  0
 29 28  2  0  0  0  0
 31 36  1  0  0  0  0
 31 28  1  0  0  0  0
 32 31  2  0  0  0  0
 33 34  2  0  0  0  0
 33 32  1  0  0  0  0
 34 35  1  0  0  0  0
 35 65  1  0  0  0  0
 35 36  2  0  0  0  0
 36 66  1  0  0  0  0
 38  2  1  0  0  0  0
 40  4  1  0  0  0  0
 41  5  1  0  0  0  0
 44 10  1  0  0  0  0
 46 11  1  0  0  0  0
 47 11  1  0  0  0  0
 48 12  1  0  0  0  0
 52 19  1  0  0  0  0
 54 20  1  0  0  0  0
 56 23  1  0  0  0  0
 59 26  1  0  0  0  0
 62 32  1  0  0  0  0
 63 33  1  0  0  0  0
 64 34  1  0  0  0  0
M  END
