omegapdb_1z1r_02.xyz
 OpenBabel12161914463D

 66 68  0  0  1  0  0  0  0  0999 V2000
    0.8044   -1.2561   -0.3742 C   0  0  2  0  0  0  0  0  0  0  0  0
    0.5002   -2.7246   -0.7374 C   0  0  0  0  0  0  0  0  0  0  0  0
   -0.8667   -3.1601   -0.2560 C   0  0  0  0  0  0  0  0  0  0  0  0
   -1.8531   -3.5764   -1.1525 C   0  0  0  0  0  0  0  0  0  0  0  0
   -3.1527   -3.8384   -0.7289 C   0  0  0  0  0  0  0  0  0  0  0  0
   -3.4905   -3.6436    0.6097 C   0  0  0  0  0  0  0  0  0  0  0  0
   -2.4988   -3.3106    1.5311 C   0  0  0  0  0  0  0  0  0  0  0  0
   -1.2061   -3.0686    1.0975 C   0  0  0  0  0  0  0  0  0  0  0  0
   -4.7591   -3.8142    1.0880 O   0  0  0  0  0  0  0  0  0  0  0  0
   -5.8106   -3.1301    0.4168 C   0  0  0  0  0  0  0  0  0  0  0  0
   -5.7285   -1.6009    0.4857 C   0  0  0  0  0  0  0  0  0  0  0  0
   -4.8702   -0.9311   -0.6012 C   0  0  0  0  0  0  0  0  0  0  0  0
   -3.6953   -0.1299   -0.0504 C   0  0  0  0  0  0  0  0  0  0  0  0
   -3.3713   -0.1121    1.1251 O   0  0  0  0  0  0  0  0  0  0  0  0
   -3.0064    0.5863   -0.9943 N   0  0  0  0  0  0  0  0  0  0  0  0
   -1.8923    1.4516   -0.6462 C   0  0  2  0  0  0  0  0  0  0  0  0
   -0.7275    0.6394   -0.0419 C   0  0  0  0  0  0  0  0  0  0  0  0
   -0.2041    0.9553    1.0279 O   0  0  0  0  0  0  0  0  0  0  0  0
   -0.2885   -0.3924   -0.7931 N   0  0  0  0  0  0  0  0  0  0  0  0
   -2.2264    2.6313    0.2777 C   0  0  0  0  0  0  0  0  0  0  0  0
   -1.1270    3.6791    0.1215 C   0  0  0  0  0  0  0  0  0  0  0  0
   -0.9608    4.2342   -0.9520 O   0  0  0  0  0  0  0  0  0  0  0  0
   -0.3748    3.9436    1.2295 N   0  0  0  0  0  0  0  0  0  0  0  0
    2.1655   -0.8103   -0.9586 C   0  0  2  0  0  0  0  0  0  0  0  0
    3.1991   -1.6292   -0.4483 O   0  0  0  0  0  0  0  0  0  0  0  0
    2.5042    0.6644   -0.7131 C   0  0  0  0  0  0  0  0  0  0  0  0
    2.6908    0.9063    0.7278 N   0  0  0  0  0  0  0  0  0  0  0  0
    3.2032    2.4441    1.1671 S   0  0  0  0  0  0  0  0  0  0  0  0
    2.4985    3.4486    0.3729 O   0  0  0  0  0  0  0  0  0  0  0  0
    3.1398    2.4829    2.6180 O   0  0  0  0  0  0  0  0  0  0  0  0
    4.8910    2.4205    0.6493 C   0  0  0  0  0  0  0  0  0  0  0  0
    5.7630    1.5321    1.2708 C   0  0  0  0  0  0  0  0  0  0  0  0
    7.0873    1.4849    0.8484 C   0  0  0  0  0  0  0  0  0  0  0  0
    7.5278    2.3234   -0.1741 C   0  0  0  0  0  0  0  0  0  0  0  0
    6.6458    3.2199   -0.7747 C   0  0  0  0  0  0  0  0  0  0  0  0
    5.3172    3.2721   -0.3654 C   0  0  0  0  0  0  0  0  0  0  0  0
    0.8646   -1.1817    0.7192 H   0  0  0  0  0  0  0  0  0  0  0  0
    1.2870   -3.3533   -0.3048 H   0  0  0  0  0  0  0  0  0  0  0  0
    0.5640   -2.8494   -1.8272 H   0  0  0  0  0  0  0  0  0  0  0  0
   -1.6054   -3.6846   -2.2066 H   0  0  0  0  0  0  0  0  0  0  0  0
   -3.8991   -4.1836   -1.4410 H   0  0  0  0  0  0  0  0  0  0  0  0
   -2.7764   -3.2068    2.5770 H   0  0  0  0  0  0  0  0  0  0  0  0
   -0.4492   -2.7868    1.8291 H   0  0  0  0  0  0  0  0  0  0  0  0
   -5.8744   -3.4631   -0.6298 H   0  0  0  0  0  0  0  0  0  0  0  0
   -6.7105   -3.4772    0.9303 H   0  0  0  0  0  0  0  0  0  0  0  0
   -6.7514   -1.2161    0.4008 H   0  0  0  0  0  0  0  0  0  0  0  0
   -5.3552   -1.3100    1.4727 H   0  0  0  0  0  0  0  0  0  0  0  0
   -4.4612   -1.6671   -1.3076 H   0  0  0  0  0  0  0  0  0  0  0  0
   -5.4827   -0.2555   -1.2126 H   0  0  0  0  0  0  0  0  0  0  0  0
   -3.4174    0.7005   -1.9079 H   0  0  0  0  0  0  0  0  0  0  0  0
   -1.5433    1.8816   -1.5946 H   0  0  0  0  0  0  0  0  0  0  0  0
   -0.8883   -0.7091   -1.5443 H   0  0  0  0  0  0  0  0  0  0  0  0
   -2.3490    2.2931    1.3074 H   0  0  0  0  0  0  0  0  0  0  0  0
   -3.1629    3.0870   -0.0600 H   0  0  0  0  0  0  0  0  0  0  0  0
   -0.3332    3.2092    1.9232 H   0  0  0  0  0  0  0  0  0  0  0  0
    0.5220    4.3733    1.0300 H   0  0  0  0  0  0  0  0  0  0  0  0
    2.1419   -0.9732   -2.0445 H   0  0  0  0  0  0  0  0  0  0  0  0
    3.4775   -1.2091    0.3821 H   0  0  0  0  0  0  0  0  0  0  0  0
    3.4554    0.8776   -1.2130 H   0  0  0  0  0  0  0  0  0  0  0  0
    1.7469    1.3322   -1.1370 H   0  0  0  0  0  0  0  0  0  0  0  0
    1.8230    0.7722    1.2544 H   0  0  0  0  0  0  0  0  0  0  0  0
    5.4018    0.8944    2.0751 H   0  0  0  0  0  0  0  0  0  0  0  0
    7.7804    0.7920    1.3176 H   0  0  0  0  0  0  0  0  0  0  0  0
    8.5629    2.2783   -0.5042 H   0  0  0  0  0  0  0  0  0  0  0  0
    6.9944    3.8815   -1.5633 H   0  0  0  0  0  0  0  0  0  0  0  0
    4.6104    3.9622   -0.8177 H   0  0  0  0  0  0  0  0  0  0  0  0
  1 37  1  1  0  0  0
  2  1  1  0  0  0  0
  2 38  1  0  0  0  0
  2  3  1  0  0  0  0
  3  8  2  0  0  0  0
  4  5  2  0  0  0  0
  4  3  1  0  0  0  0
  5  6  1  0  0  0  0
  6  9  1  0  0  0  0
  6  7  2  0  0  0  0
  7 42  1  0  0  0  0
  8  7  1  0  0  0  0
  8 43  1  0  0  0  0
 10 11  1  0  0  0  0
 10 45  1  0  0  0  0
 10  9  1  0  0  0  0
 11 47  1  0  0  0  0
 12 13  1  0  0  0  0
 12 11  1  0  0  0  0
 13 14  2  0  0  0  0
 15 16  1  0  0  0  0
 15 13  1  0  0  0  0
 16 51  1  6  0  0  0
 16 17  1  0  0  0  0
 16 20  1  0  0  0  0
 17 18  2  0  0  0  0
 19  1  1  0  0  0  0
 19 17  1  0  0  0  0
 20 53  1  0  0  0  0
 21 20  1  0  0  0  0
 21 23  1  0  0  0  0
 22 21  2  0  0  0  0
 23 55  1  0  0  0  0
 24 57  1  6  0  0  0
 24 26  1  0  0  0  0
 24 25  1  0  0  0  0
 24  1  1  0  0  0  0
 25 58  1  0  0  0  0
 26 27  1  0  0  0  0
 27 28  1  0  0  0  0
 27 61  1  0  0  0  0
 28 30  2  0  0  0  0
 29 28  2  0  0  0  0
 31 28  1  0  0  0  0
 31 32  2  0  0  0  0
 32 62  1  0  0  0  0
 33 32  1  0  0  0  0
 33 63  1  0  0  0  0
 34 33  2  0  0  0  0
 35 36  2  0  0  0  0
 35 34  1  0  0  0  0
 36 31  1  0  0  0  0
 39  2  1  0  0  0  0
 40  4  1  0  0  0  0
 41  5  1  0  0  0  0
 44 10  1  0  0  0  0
 46 11  1  0  0  0  0
 48 12  1  0  0  0  0
 49 12  1  0  0  0  0
 50 15  1  0  0  0  0
 52 19  1  0  0  0  0
 54 20  1  0  0  0  0
 56 23  1  0  0  0  0
 59 26  1  0  0  0  0
 60 26  1  0  0  0  0
 64 34  1  0  0  0  0
 65 35  1  0  0  0  0
 66 36  1  0  0  0  0
M  END
