omegacsd_FABSOQ10_08.xyz
 OpenBabel12161914463D

 45 47  0  0  1  0  0  0  0  0999 V2000
   -0.6304    0.9760    0.2643 S   0  0  0  0  0  0  0  0  0  0  0  0
   -1.1808    0.1769   -1.1713 C   0  0  0  0  0  0  0  0  0  0  0  0
   -0.2525   -0.7221   -1.6163 C   0  0  0  0  0  0  0  0  0  0  0  0
    0.9132   -0.7703   -0.8015 C   0  0  0  0  0  0  0  0  0  0  0  0
    0.8696    0.0985    0.2526 C   0  0  0  0  0  0  0  0  0  0  0  0
    1.8710    0.2726    1.3741 C   0  0  1  0  0  0  0  0  0  0  0  0
    1.5255   -0.5042    2.5081 O   0  0  0  0  0  0  0  0  0  0  0  0
    3.2986    0.0361    0.9074 C   0  0  0  0  0  0  0  0  0  0  0  0
    4.1232   -0.9171    1.4920 C   0  0  0  0  0  0  0  0  0  0  0  0
    5.4404   -1.0883    1.0694 C   0  0  0  0  0  0  0  0  0  0  0  0
    5.9441   -0.2876    0.0461 C   0  0  0  0  0  0  0  0  0  0  0  0
    7.2092   -0.3692   -0.4457 O   0  0  0  0  0  0  0  0  0  0  0  0
    8.0960   -1.2648    0.1883 C   0  0  0  0  0  0  0  0  0  0  0  0
    5.1249    0.6807   -0.5436 C   0  0  0  0  0  0  0  0  0  0  0  0
    3.8200    0.8381   -0.1130 C   0  0  0  0  0  0  0  0  0  0  0  0
   -2.4398    0.6226   -1.8769 C   0  0  2  0  0  0  0  0  0  0  0  0
   -2.2264    1.8385   -2.5695 O   0  0  0  0  0  0  0  0  0  0  0  0
   -3.6442    0.6806   -0.9559 C   0  0  0  0  0  0  0  0  0  0  0  0
   -4.3848    1.8529   -0.7999 C   0  0  0  0  0  0  0  0  0  0  0  0
   -5.4990    1.8877    0.0196 C   0  0  0  0  0  0  0  0  0  0  0  0
   -5.9062    0.7312    0.6916 C   0  0  0  0  0  0  0  0  0  0  0  0
   -7.0203    0.8542    1.4600 O   0  0  0  0  0  0  0  0  0  0  0  0
   -7.4786   -0.2957    2.1359 C   0  0  0  0  0  0  0  0  0  0  0  0
   -5.1770   -0.4487    0.5432 C   0  0  0  0  0  0  0  0  0  0  0  0
   -4.0509   -0.4617   -0.2763 C   0  0  0  0  0  0  0  0  0  0  0  0
   -0.3983   -1.3212   -2.5088 H   0  0  0  0  0  0  0  0  0  0  0  0
    1.7724   -1.4048   -0.9973 H   0  0  0  0  0  0  0  0  0  0  0  0
    1.8089    1.3127    1.7213 H   0  0  0  0  0  0  0  0  0  0  0  0
    1.2662   -1.3830    2.1986 H   0  0  0  0  0  0  0  0  0  0  0  0
    3.7429   -1.5293    2.3062 H   0  0  0  0  0  0  0  0  0  0  0  0
    6.0592   -1.8400    1.5494 H   0  0  0  0  0  0  0  0  0  0  0  0
    8.2218   -1.0179    1.2513 H   0  0  0  0  0  0  0  0  0  0  0  0
    7.7512   -2.3042    0.1019 H   0  0  0  0  0  0  0  0  0  0  0  0
    9.0528   -1.1581   -0.3257 H   0  0  0  0  0  0  0  0  0  0  0  0
    5.5414    1.2957   -1.3350 H   0  0  0  0  0  0  0  0  0  0  0  0
    3.1870    1.5944   -0.5741 H   0  0  0  0  0  0  0  0  0  0  0  0
   -2.6489   -0.1221   -2.6581 H   0  0  0  0  0  0  0  0  0  0  0  0
   -1.7369    2.4203   -1.9697 H   0  0  0  0  0  0  0  0  0  0  0  0
   -4.0822    2.7441   -1.3435 H   0  0  0  0  0  0  0  0  0  0  0  0
   -6.0785    2.7967    0.1531 H   0  0  0  0  0  0  0  0  0  0  0  0
   -8.3793    0.0094    2.6706 H   0  0  0  0  0  0  0  0  0  0  0  0
   -7.7290   -1.1030    1.4351 H   0  0  0  0  0  0  0  0  0  0  0  0
   -6.7343   -0.6629    2.8546 H   0  0  0  0  0  0  0  0  0  0  0  0
   -5.4742   -1.3575    1.0551 H   0  0  0  0  0  0  0  0  0  0  0  0
   -3.4870   -1.3856   -0.3900 H   0  0  0  0  0  0  0  0  0  0  0  0
  2  1  1  0  0  0  0
  3  2  2  0  0  0  0
  3  4  1  0  0  0  0
  4  5  2  0  0  0  0
  5  1  1  0  0  0  0
  5  6  1  0  0  0  0
  6 28  1  1  0  0  0
  6  7  1  0  0  0  0
  8  6  1  0  0  0  0
  8  9  2  0  0  0  0
  9 30  1  0  0  0  0
 10  9  1  0  0  0  0
 10 31  1  0  0  0  0
 11 10  2  0  0  0  0
 12 11  1  0  0  0  0
 12 13  1  0  0  0  0
 13 32  1  0  0  0  0
 14 15  2  0  0  0  0
 14 11  1  0  0  0  0
 15  8  1  0  0  0  0
 16 37  1  6  0  0  0
 16  2  1  0  0  0  0
 16 18  1  0  0  0  0
 17 38  1  0  0  0  0
 17 16  1  0  0  0  0
 18 19  2  0  0  0  0
 18 25  1  0  0  0  0
 19 20  1  0  0  0  0
 20 40  1  0  0  0  0
 20 21  2  0  0  0  0
 21 22  1  0  0  0  0
 22 23  1  0  0  0  0
 23 41  1  0  0  0  0
 23 43  1  0  0  0  0
 24 21  1  0  0  0  0
 24 44  1  0  0  0  0
 25 24  2  0  0  0  0
 26  3  1  0  0  0  0
 27  4  1  0  0  0  0
 29  7  1  0  0  0  0
 33 13  1  0  0  0  0
 34 13  1  0  0  0  0
 35 14  1  0  0  0  0
 36 15  1  0  0  0  0
 39 19  1  0  0  0  0
 42 23  1  0  0  0  0
 45 25  1  0  0  0  0
M  END
