omegapdb_1m5f_05.xyz
 OpenBabel12161914463D

 25 25  0  0  1  0  0  0  0  0999 V2000
   -1.6048   -3.6423   -0.9423 O   0  0  0  0  0  0  0  0  0  0  0  0
   -0.7891   -2.5879   -0.9985 C   0  0  0  0  0  0  0  0  0  0  0  0
    0.3357   -2.6622   -1.4271 O   0  0  0  0  0  0  0  0  0  0  0  0
   -1.3797   -1.3135   -0.4864 C   0  0  0  0  0  0  0  0  0  0  0  0
   -2.5803   -1.3304    0.0314 N   0  0  0  0  0  0  0  0  0  0  0  0
   -2.8369   -0.0446    0.4213 O   0  0  0  0  0  0  0  0  0  0  0  0
   -1.7820    0.7391    0.1261 C   0  0  0  0  0  0  0  0  0  0  0  0
   -0.8042   -0.0084   -0.4579 C   0  0  0  0  0  0  0  0  0  0  0  0
    0.5820    0.3921   -0.8478 C   0  0  0  0  0  0  0  0  0  0  0  0
    1.6348   -0.1122    0.1539 C   0  0  2  0  0  0  0  0  0  0  0  0
    1.3655    0.3729    1.5113 N   0  0  0  0  0  0  0  0  0  0  0  0
    3.0081    0.4027   -0.3025 C   0  0  0  0  0  0  0  0  0  0  0  0
    3.5785   -0.0250   -1.2743 O   0  0  0  0  0  0  0  0  0  0  0  0
    3.4817    1.4041    0.4429 O   0  0  0  0  0  0  0  0  0  0  0  0
   -1.9074    2.1760    0.4940 C   0  0  0  0  0  0  0  0  0  0  0  0
   -2.4564   -3.3736   -0.5548 H   0  0  0  0  0  0  0  0  0  0  0  0
    0.6509    1.4854   -0.9255 H   0  0  0  0  0  0  0  0  0  0  0  0
    0.8274   -0.0209   -1.8276 H   0  0  0  0  0  0  0  0  0  0  0  0
    1.6424   -1.2047    0.0826 H   0  0  0  0  0  0  0  0  0  0  0  0
    1.6859   -0.3094    2.1922 H   0  0  0  0  0  0  0  0  0  0  0  0
    0.3653    0.4847    1.6503 H   0  0  0  0  0  0  0  0  0  0  0  0
    2.8160    1.5306    1.1591 H   0  0  0  0  0  0  0  0  0  0  0  0
   -2.7722    2.6292    0.0009 H   0  0  0  0  0  0  0  0  0  0  0  0
   -1.0142    2.7355    0.2036 H   0  0  0  0  0  0  0  0  0  0  0  0
   -2.0471    2.2825    1.5749 H   0  0  0  0  0  0  0  0  0  0  0  0
  1 16  1  0  0  0  0
  2  1  1  0  0  0  0
  2  4  1  0  0  0  0
  3  2  2  0  0  0  0
  4  8  1  0  0  0  0
  4  5  2  0  0  0  0
  5  6  1  0  0  0  0
  7  6  1  0  0  0  0
  7 15  1  0  0  0  0
  8  7  2  0  0  0  0
  9  8  1  0  0  0  0
  9 10  1  0  0  0  0
 10 19  1  1  0  0  0
 10 11  1  0  0  0  0
 11 21  1  0  0  0  0
 11 20  1  0  0  0  0
 12 10  1  0  0  0  0
 12 14  1  0  0  0  0
 13 12  2  0  0  0  0
 14 22  1  0  0  0  0
 15 25  1  0  0  0  0
 17  9  1  0  0  0  0
 18  9  1  0  0  0  0
 23 15  1  0  0  0  0
 24 15  1  0  0  0  0
M  END
