omegapdb_2byh_15.xyz
 OpenBabel12161914463D

 40 42  0  0  0  0  0  0  0  0999 V2000
    6.4325    0.0911    2.2860 O   0  0  0  0  0  0  0  0  0  0  0  0
    5.3067    0.4896    2.5187 C   0  0  0  0  0  0  0  0  0  0  0  0
    4.9634    1.1122    3.8551 C   0  0  0  0  0  0  0  0  0  0  0  0
    4.2339    0.3758    1.4839 C   0  0  0  0  0  0  0  0  0  0  0  0
    2.9235    0.8032    1.6997 C   0  0  0  0  0  0  0  0  0  0  0  0
    1.9564    0.6822    0.7101 C   0  0  0  0  0  0  0  0  0  0  0  0
    2.2916    0.1095   -0.5202 C   0  0  0  0  0  0  0  0  0  0  0  0
    3.6102   -0.2970   -0.7494 C   0  0  0  0  0  0  0  0  0  0  0  0
    4.5649   -0.1777    0.2435 C   0  0  0  0  0  0  0  0  0  0  0  0
    1.3701   -0.0470   -1.5780 N   0  0  0  0  0  0  0  0  0  0  0  0
    0.0352   -0.4078   -1.6455 C   0  0  0  0  0  0  0  0  0  0  0  0
   -0.5711   -0.1884   -2.6835 O   0  0  0  0  0  0  0  0  0  0  0  0
   -0.6122   -1.0823   -0.4957 C   0  0  0  0  0  0  0  0  0  0  0  0
   -0.0546   -1.9541    0.4712 C   0  0  0  0  0  0  0  0  0  0  0  0
   -0.9756   -2.5226    1.2287 N   0  0  0  0  0  0  0  0  0  0  0  0
   -2.1317   -2.0374    0.7481 N   0  0  0  0  0  0  0  0  0  0  0  0
   -1.9882   -1.1520   -0.2659 C   0  0  0  0  0  0  0  0  0  0  0  0
   -3.1138   -0.4013   -0.8338 C   0  0  0  0  0  0  0  0  0  0  0  0
   -2.9932    0.9655   -1.0873 C   0  0  0  0  0  0  0  0  0  0  0  0
   -4.0713    1.7104   -1.5277 C   0  0  0  0  0  0  0  0  0  0  0  0
   -3.9050    3.4198   -1.8351 Cl  0  0  0  0  0  0  0  0  0  0  0  0
   -5.3222    1.1128   -1.7217 C   0  0  0  0  0  0  0  0  0  0  0  0
   -6.4117    1.7883   -2.1370 O   0  0  0  0  0  0  0  0  0  0  0  0
   -5.4577   -0.2495   -1.4717 C   0  0  0  0  0  0  0  0  0  0  0  0
   -4.3724   -0.9959   -1.0539 C   0  0  0  0  0  0  0  0  0  0  0  0
   -4.6019   -2.3238   -0.8229 O   0  0  0  0  0  0  0  0  0  0  0  0
    5.8622    1.1157    4.4735 H   0  0  0  0  0  0  0  0  0  0  0  0
    4.6030    2.1391    3.7259 H   0  0  0  0  0  0  0  0  0  0  0  0
    4.1730    0.5443    4.3590 H   0  0  0  0  0  0  0  0  0  0  0  0
    2.6442    1.2425    2.6532 H   0  0  0  0  0  0  0  0  0  0  0  0
    0.9376    1.0151    0.8931 H   0  0  0  0  0  0  0  0  0  0  0  0
    3.8710   -0.7204   -1.7166 H   0  0  0  0  0  0  0  0  0  0  0  0
    5.5873   -0.5009    0.0745 H   0  0  0  0  0  0  0  0  0  0  0  0
    1.7107    0.2061   -2.4976 H   0  0  0  0  0  0  0  0  0  0  0  0
    0.9895   -2.1766    0.6360 H   0  0  0  0  0  0  0  0  0  0  0  0
   -3.0022   -2.2972    1.1930 H   0  0  0  0  0  0  0  0  0  0  0  0
   -2.0418    1.4616   -0.9327 H   0  0  0  0  0  0  0  0  0  0  0  0
   -6.1772    2.7165   -2.2836 H   0  0  0  0  0  0  0  0  0  0  0  0
   -6.4219   -0.7277   -1.6108 H   0  0  0  0  0  0  0  0  0  0  0  0
   -3.8414   -2.8420   -1.1166 H   0  0  0  0  0  0  0  0  0  0  0  0
  1  2  2  0  0  0  0
  2  3  1  0  0  0  0
  3 29  1  0  0  0  0
  3 27  1  0  0  0  0
  4  5  1  0  0  0  0
  4  2  1  0  0  0  0
  5 30  1  0  0  0  0
  6 31  1  0  0  0  0
  6  5  2  0  0  0  0
  7  6  1  0  0  0  0
  8  7  2  0  0  0  0
  8  9  1  0  0  0  0
  9  4  2  0  0  0  0
 10  7  1  0  0  0  0
 11 10  1  0  0  0  0
 11 13  1  0  0  0  0
 12 11  2  0  0  0  0
 13 17  2  0  0  0  0
 13 14  1  0  0  0  0
 14 35  1  0  0  0  0
 14 15  2  0  0  0  0
 16 36  1  0  0  0  0
 16 15  1  0  0  0  0
 17 16  1  0  0  0  0
 18 17  1  0  0  0  0
 19 37  1  0  0  0  0
 19 18  2  0  0  0  0
 20 19  1  0  0  0  0
 21 20  1  0  0  0  0
 22 20  2  0  0  0  0
 22 24  1  0  0  0  0
 23 22  1  0  0  0  0
 24 25  2  0  0  0  0
 25 18  1  0  0  0  0
 25 26  1  0  0  0  0
 28  3  1  0  0  0  0
 32  8  1  0  0  0  0
 33  9  1  0  0  0  0
 34 10  1  0  0  0  0
 38 23  1  0  0  0  0
 39 24  1  0  0  0  0
 40 26  1  0  0  0  0
M  END
