omegacsd_GALSEM_14.xyz
 OpenBabel12161914463D

 39 40  0  0  0  0  0  0  0  0999 V2000
    2.7718   -0.2178   -0.6250 S   0  0  0  0  0  0  0  0  0  0  0  0
    4.1698   -0.5356   -0.8196 O   0  0  0  0  0  0  0  0  0  0  0  0
    2.1724    0.9497   -1.2735 O   0  0  0  0  0  0  0  0  0  0  0  0
    2.5006   -0.1057    1.0526 N   0  0  0  0  0  0  0  0  0  0  0  0
    3.0018    1.0316    1.7040 C   0  0  0  0  0  0  0  0  0  0  0  0
    3.9283    1.6805    1.2840 O   0  0  0  0  0  0  0  0  0  0  0  0
    2.2632    1.3566    2.9883 C   0  0  0  0  0  0  0  0  0  0  0  0
    2.9680    2.4531    3.7766 C   0  0  0  0  0  0  0  0  0  0  0  0
    1.8316   -1.6455   -1.0845 C   0  0  0  0  0  0  0  0  0  0  0  0
    0.4406   -1.5832   -1.3026 C   0  0  0  0  0  0  0  0  0  0  0  0
   -0.2388   -0.3903   -1.2019 N   0  0  0  0  0  0  0  0  0  0  0  0
   -1.5876   -0.1887   -0.9111 C   0  0  0  0  0  0  0  0  0  0  0  0
   -2.1717    0.9874   -1.3882 C   0  0  0  0  0  0  0  0  0  0  0  0
   -3.5013    1.2679   -1.1103 C   0  0  0  0  0  0  0  0  0  0  0  0
   -4.2649    0.3963   -0.3370 C   0  0  0  0  0  0  0  0  0  0  0  0
   -3.6741   -0.7608    0.1572 C   0  0  0  0  0  0  0  0  0  0  0  0
   -2.3444   -1.0600   -0.1210 C   0  0  0  0  0  0  0  0  0  0  0  0
   -4.1371    2.5121   -1.6632 C   0  0  0  0  0  0  0  0  0  0  0  0
   -5.0177    2.2258   -2.6418 F   0  0  0  0  0  0  0  0  0  0  0  0
   -4.8212    3.1807   -0.7150 F   0  0  0  0  0  0  0  0  0  0  0  0
   -3.2308    3.3595   -2.1804 F   0  0  0  0  0  0  0  0  0  0  0  0
   -0.1811   -2.7851   -1.6575 C   0  0  0  0  0  0  0  0  0  0  0  0
    0.5805   -3.9432   -1.7455 C   0  0  0  0  0  0  0  0  0  0  0  0
    1.8953   -4.0062   -1.5160 N   0  0  0  0  0  0  0  0  0  0  0  0
    2.4959   -2.8631   -1.1959 C   0  0  0  0  0  0  0  0  0  0  0  0
    1.5758   -0.3907    1.3633 H   0  0  0  0  0  0  0  0  0  0  0  0
    2.1592    0.4407    3.5837 H   0  0  0  0  0  0  0  0  0  0  0  0
    1.2463    1.6784    2.7177 H   0  0  0  0  0  0  0  0  0  0  0  0
    3.9599    2.1278    4.1037 H   0  0  0  0  0  0  0  0  0  0  0  0
    3.1069    3.3378    3.1498 H   0  0  0  0  0  0  0  0  0  0  0  0
    2.3848    2.7332    4.6587 H   0  0  0  0  0  0  0  0  0  0  0  0
    0.3201    0.4406   -1.3840 H   0  0  0  0  0  0  0  0  0  0  0  0
   -1.5758    1.6817   -1.9771 H   0  0  0  0  0  0  0  0  0  0  0  0
   -5.3018    0.6299   -0.1215 H   0  0  0  0  0  0  0  0  0  0  0  0
   -4.2540   -1.4454    0.7686 H   0  0  0  0  0  0  0  0  0  0  0  0
   -1.8939   -1.9594    0.2902 H   0  0  0  0  0  0  0  0  0  0  0  0
   -1.2427   -2.8136   -1.8824 H   0  0  0  0  0  0  0  0  0  0  0  0
    0.0980   -4.8803   -2.0158 H   0  0  0  0  0  0  0  0  0  0  0  0
    3.5686   -2.8965   -1.0185 H   0  0  0  0  0  0  0  0  0  0  0  0
  1  4  1  0  0  0  0
  2  1  2  0  0  0  0
  3  1  2  0  0  0  0
  4 26  1  0  0  0  0
  4  5  1  0  0  0  0
  5  7  1  0  0  0  0
  6  5  2  0  0  0  0
  7 27  1  0  0  0  0
  7  8  1  0  0  0  0
  8 29  1  0  0  0  0
  8 31  1  0  0  0  0
  9  1  1  0  0  0  0
 10 11  1  0  0  0  0
 10  9  2  0  0  0  0
 11 12  1  0  0  0  0
 12 17  2  0  0  0  0
 13 14  2  0  0  0  0
 13 12  1  0  0  0  0
 14 15  1  0  0  0  0
 15 34  1  0  0  0  0
 15 16  2  0  0  0  0
 16 35  1  0  0  0  0
 17 16  1  0  0  0  0
 17 36  1  0  0  0  0
 18 14  1  0  0  0  0
 18 20  1  0  0  0  0
 19 18  1  0  0  0  0
 21 18  1  0  0  0  0
 22 10  1  0  0  0  0
 23 22  2  0  0  0  0
 23 24  1  0  0  0  0
 24 25  2  0  0  0  0
 25  9  1  0  0  0  0
 25 39  1  0  0  0  0
 28  7  1  0  0  0  0
 30  8  1  0  0  0  0
 32 11  1  0  0  0  0
 33 13  1  0  0  0  0
 37 22  1  0  0  0  0
 38 23  1  0  0  0  0
M  END
