omegacsd_SPIRIL_01.xyz
 OpenBabel12161914463D

 57 60  0  0  1  0  0  0  0  0999 V2000
   -2.0726   -1.5083    0.1401 C   0  0  0  0  0  0  0  0  0  0  0  0
   -3.0138   -0.9896   -0.9667 C   0  0  1  0  0  0  0  0  0  0  0  0
   -3.0942   -2.0511   -2.0825 C   0  0  0  0  0  0  0  0  0  0  0  0
   -2.1812   -2.4511   -2.7789 O   0  0  0  0  0  0  0  0  0  0  0  0
   -4.3845   -2.4793   -2.1501 N   0  0  0  0  0  0  0  0  0  0  0  0
   -5.3009   -1.6989   -1.3573 C   0  0  0  0  0  0  0  0  0  0  0  0
   -4.4125   -0.9144   -0.5149 N   0  0  0  0  0  0  0  0  0  0  0  0
   -4.9528    0.0126    0.3743 C   0  0  0  0  0  0  0  0  0  0  0  0
   -4.1659    0.8528    1.1822 C   0  0  0  0  0  0  0  0  0  0  0  0
   -4.7505    1.7391    2.0794 C   0  0  0  0  0  0  0  0  0  0  0  0
   -6.1318    1.8347    2.2012 C   0  0  0  0  0  0  0  0  0  0  0  0
   -6.9239    1.0147    1.4077 C   0  0  0  0  0  0  0  0  0  0  0  0
   -6.3510    0.1173    0.5145 C   0  0  0  0  0  0  0  0  0  0  0  0
   -2.4961    0.3328   -1.5751 C   0  0  0  0  0  0  0  0  0  0  0  0
   -1.0038    0.2760   -1.8888 C   0  0  0  0  0  0  0  0  0  0  0  0
   -0.2372   -0.0975   -0.7004 N   0  0  0  0  0  0  0  0  0  0  0  0
    1.1914    0.0416   -0.9362 C   0  0  0  0  0  0  0  0  0  0  0  0
    2.0122    0.1207    0.3478 C   0  0  0  0  0  0  0  0  0  0  0  0
    3.4756    0.3351    0.0525 C   0  0  0  0  0  0  0  0  0  0  0  0
    4.4485    0.3915    0.9681 C   0  0  0  0  0  0  0  0  0  0  0  0
    5.8630    0.6475    0.5722 C   0  0  0  0  0  0  0  0  0  0  0  0
    6.1713    1.4538   -0.5337 C   0  0  0  0  0  0  0  0  0  0  0  0
    7.4863    1.6943   -0.9072 C   0  0  0  0  0  0  0  0  0  0  0  0
    8.5054    1.1070   -0.1723 C   0  0  0  0  0  0  0  0  0  0  0  0
    8.2448    0.3032    0.9253 C   0  0  0  0  0  0  0  0  0  0  0  0
    6.9229    0.0879    1.2938 C   0  0  0  0  0  0  0  0  0  0  0  0
    9.7807    1.3291   -0.5321 F   0  0  0  0  0  0  0  0  0  0  0  0
    4.1637    0.1743    2.4357 C   0  0  0  0  0  0  0  0  0  0  0  0
   -0.6040   -1.4509   -0.2786 C   0  0  0  0  0  0  0  0  0  0  0  0
   -2.3532   -2.5364    0.3937 H   0  0  0  0  0  0  0  0  0  0  0  0
   -2.2105   -0.9120    1.0452 H   0  0  0  0  0  0  0  0  0  0  0  0
   -4.6757   -3.0260   -2.9429 H   0  0  0  0  0  0  0  0  0  0  0  0
   -5.9287   -1.0403   -1.9805 H   0  0  0  0  0  0  0  0  0  0  0  0
   -5.9449   -2.3439   -0.7455 H   0  0  0  0  0  0  0  0  0  0  0  0
   -3.0852    0.8373    1.1134 H   0  0  0  0  0  0  0  0  0  0  0  0
   -4.1086    2.3704    2.6879 H   0  0  0  0  0  0  0  0  0  0  0  0
   -6.5810    2.5351    2.8993 H   0  0  0  0  0  0  0  0  0  0  0  0
   -8.0087    1.0698    1.4787 H   0  0  0  0  0  0  0  0  0  0  0  0
   -7.0066   -0.5052   -0.0828 H   0  0  0  0  0  0  0  0  0  0  0  0
   -2.6706    1.1537   -0.8762 H   0  0  0  0  0  0  0  0  0  0  0  0
   -3.0690    0.5579   -2.4808 H   0  0  0  0  0  0  0  0  0  0  0  0
   -0.8176   -0.4182   -2.7257 H   0  0  0  0  0  0  0  0  0  0  0  0
   -0.6750    1.2735   -2.2050 H   0  0  0  0  0  0  0  0  0  0  0  0
    1.5861   -0.7747   -1.5766 H   0  0  0  0  0  0  0  0  0  0  0  0
    1.3557    0.9775   -1.4844 H   0  0  0  0  0  0  0  0  0  0  0  0
    1.6139    0.9373    0.9688 H   0  0  0  0  0  0  0  0  0  0  0  0
    1.8811   -0.7962    0.9425 H   0  0  0  0  0  0  0  0  0  0  0  0
    3.7422    0.4162   -1.0041 H   0  0  0  0  0  0  0  0  0  0  0  0
    5.3698    1.9238   -1.0983 H   0  0  0  0  0  0  0  0  0  0  0  0
    7.7300    2.3204   -1.7600 H   0  0  0  0  0  0  0  0  0  0  0  0
    9.0688   -0.1345    1.4800 H   0  0  0  0  0  0  0  0  0  0  0  0
    6.7122   -0.5378    2.1573 H   0  0  0  0  0  0  0  0  0  0  0  0
    4.4455   -0.8383    2.7528 H   0  0  0  0  0  0  0  0  0  0  0  0
    4.7388    0.8779    3.0455 H   0  0  0  0  0  0  0  0  0  0  0  0
    3.1028    0.3120    2.6677 H   0  0  0  0  0  0  0  0  0  0  0  0
   -0.4183   -2.1833   -1.0832 H   0  0  0  0  0  0  0  0  0  0  0  0
    0.0171   -1.7405    0.5756 H   0  0  0  0  0  0  0  0  0  0  0  0
  1 30  1  0  0  0  0
  1 31  1  0  0  0  0
  2  3  1  6  0  0  0
  2  7  1  0  0  0  0
  2  1  1  0  0  0  0
  4  3  2  0  0  0  0
  5  3  1  0  0  0  0
  5  6  1  0  0  0  0
  6 34  1  0  0  0  0
  6  7  1  0  0  0  0
  7  8  1  0  0  0  0
  8 13  2  0  0  0  0
  8  9  1  0  0  0  0
  9 10  2  0  0  0  0
 10 11  1  0  0  0  0
 10 36  1  0  0  0  0
 11 37  1  0  0  0  0
 12 38  1  0  0  0  0
 12 11  2  0  0  0  0
 13 12  1  0  0  0  0
 14  2  1  0  0  0  0
 14 40  1  0  0  0  0
 15 14  1  0  0  0  0
 15 16  1  0  0  0  0
 16 29  1  0  0  0  0
 17 16  1  0  0  0  0
 17 18  1  0  0  0  0
 18 47  1  0  0  0  0
 18 46  1  0  0  0  0
 19 18  1  0  0  0  0
 19 20  2  0  0  0  0
 20 28  1  0  0  0  0
 21 20  1  0  0  0  0
 21 26  2  0  0  0  0
 22 21  1  0  0  0  0
 23 22  2  0  0  0  0
 23 24  1  0  0  0  0
 24 25  2  0  0  0  0
 25 26  1  0  0  0  0
 25 51  1  0  0  0  0
 26 52  1  0  0  0  0
 27 24  1  0  0  0  0
 28 55  1  0  0  0  0
 28 53  1  0  0  0  0
 28 54  1  0  0  0  0
 29  1  1  0  0  0  0
 29 57  1  0  0  0  0
 32  5  1  0  0  0  0
 33  6  1  0  0  0  0
 35  9  1  0  0  0  0
 39 13  1  0  0  0  0
 41 14  1  0  0  0  0
 42 15  1  0  0  0  0
 43 15  1  0  0  0  0
 44 17  1  0  0  0  0
 45 17  1  0  0  0  0
 48 19  1  0  0  0  0
 49 22  1  0  0  0  0
 50 23  1  0  0  0  0
 56 29  1  0  0  0  0
M  END
