omegapdb_2f7p_04.xyz
 OpenBabel12161914463D

 34 35  0  0  1  0  0  0  0  0999 V2000
   -1.2388   -0.3793   -0.4781 C   0  0  1  0  0  0  0  0  0  0  0  0
    0.0830    0.1690   -0.1976 N   0  0  0  0  0  0  0  0  0  0  0  0
    1.1712   -0.7979   -0.3783 C   0  0  0  0  0  0  0  0  0  0  0  0
    2.5282   -0.1606   -0.1759 C   0  0  0  0  0  0  0  0  0  0  0  0
    2.7034    0.9210    0.6879 C   0  0  0  0  0  0  0  0  0  0  0  0
    3.9662    1.4670    0.8909 C   0  0  0  0  0  0  0  0  0  0  0  0
    5.0722    0.9412    0.2297 C   0  0  0  0  0  0  0  0  0  0  0  0
    4.9060   -0.1377   -0.6337 C   0  0  0  0  0  0  0  0  0  0  0  0
    3.6415   -0.6827   -0.8334 C   0  0  0  0  0  0  0  0  0  0  0  0
   -1.7395   -1.2712    0.6992 C   0  0  1  0  0  0  0  0  0  0  0  0
   -1.1017   -0.9049    1.9075 O   0  0  0  0  0  0  0  0  0  0  0  0
   -3.2730   -1.0032    0.8164 C   0  0  1  0  0  0  0  0  0  0  0  0
   -3.5732   -0.2937    1.9990 O   0  0  0  0  0  0  0  0  0  0  0  0
   -3.6167   -0.0848   -0.3771 C   0  0  1  0  0  0  0  0  0  0  0  0
   -4.7277    0.7282   -0.1372 O   0  0  0  0  0  0  0  0  0  0  0  0
   -2.3198    0.6966   -0.5899 C   0  0  2  0  0  0  0  0  0  0  0  0
   -2.2614    1.5996   -2.1592 S   0  0  0  0  0  0  0  0  0  0  0  0
   -1.2432   -0.9825   -1.4000 H   0  0  0  0  0  0  0  0  0  0  0  0
    0.2491    0.9485   -0.8318 H   0  0  0  0  0  0  0  0  0  0  0  0
    1.1330   -1.2724   -1.3735 H   0  0  0  0  0  0  0  0  0  0  0  0
    1.0299   -1.6072    0.3536 H   0  0  0  0  0  0  0  0  0  0  0  0
    1.8386    1.3406    1.1957 H   0  0  0  0  0  0  0  0  0  0  0  0
    4.0849    2.3110    1.5665 H   0  0  0  0  0  0  0  0  0  0  0  0
    6.0585    1.3699    0.3885 H   0  0  0  0  0  0  0  0  0  0  0  0
    5.7649   -0.5551   -1.1547 H   0  0  0  0  0  0  0  0  0  0  0  0
    3.5197   -1.5263   -1.5112 H   0  0  0  0  0  0  0  0  0  0  0  0
   -1.5416   -2.3322    0.5027 H   0  0  0  0  0  0  0  0  0  0  0  0
   -0.4174   -0.2599    1.6360 H   0  0  0  0  0  0  0  0  0  0  0  0
   -3.8578   -1.9299    0.7942 H   0  0  0  0  0  0  0  0  0  0  0  0
   -2.7292   -0.2421    2.4827 H   0  0  0  0  0  0  0  0  0  0  0  0
   -3.8253   -0.6869   -1.2717 H   0  0  0  0  0  0  0  0  0  0  0  0
   -4.7003    0.9237    0.8140 H   0  0  0  0  0  0  0  0  0  0  0  0
   -2.1918    1.4042    0.2369 H   0  0  0  0  0  0  0  0  0  0  0  0
   -3.3916    2.2902   -1.9425 H   0  0  0  0  0  0  0  0  0  0  0  0
  1 16  1  6  0  0  0
  1  2  1  0  0  0  0
  3  2  1  0  0  0  0
  3  4  1  0  0  0  0
  3 21  1  0  0  0  0
  4  5  2  0  0  0  0
  5  6  1  0  0  0  0
  5 22  1  0  0  0  0
  6 23  1  0  0  0  0
  7 24  1  0  0  0  0
  7  6  2  0  0  0  0
  8  7  1  0  0  0  0
  9  8  2  0  0  0  0
  9  4  1  0  0  0  0
 10  1  1  6  0  0  0
 10 12  1  0  0  0  0
 10 11  1  0  0  0  0
 12 14  1  6  0  0  0
 12 13  1  0  0  0  0
 13 30  1  0  0  0  0
 14 16  1  6  0  0  0
 14 15  1  0  0  0  0
 15 32  1  0  0  0  0
 16 33  1  1  0  0  0
 17 34  1  0  0  0  0
 17 16  1  0  0  0  0
 18  1  1  0  0  0  0
 19  2  1  0  0  0  0
 20  3  1  0  0  0  0
 25  8  1  0  0  0  0
 26  9  1  0  0  0  0
 27 10  1  0  0  0  0
 28 11  1  0  0  0  0
 29 12  1  0  0  0  0
 31 14  1  0  0  0  0
M  END
