omegapdb_1gs5_08.xyz
 OpenBabel12161914463D

 24 23  0  0  1  0  0  0  0  0999 V2000
   -0.4836   -0.9771   -0.0543 C   0  0  2  0  0  0  0  0  0  0  0  0
   -1.3390   -2.0709    0.5661 C   0  0  0  0  0  0  0  0  0  0  0  0
   -2.5294   -1.9936    0.7626 O   0  0  0  0  0  0  0  0  0  0  0  0
   -0.6191   -3.1624    0.8605 O   0  0  0  0  0  0  0  0  0  0  0  0
    0.7091   -0.5782    0.8521 C   0  0  0  0  0  0  0  0  0  0  0  0
    2.0571   -0.5312    0.1015 C   0  0  0  0  0  0  0  0  0  0  0  0
    2.9680    0.5280    0.7003 C   0  0  0  0  0  0  0  0  0  0  0  0
    3.9637    0.2916    1.3335 O   0  0  0  0  0  0  0  0  0  0  0  0
    2.5506    1.7899    0.4930 O   0  0  0  0  0  0  0  0  0  0  0  0
   -1.3788    0.1195   -0.3604 N   0  0  0  0  0  0  0  0  0  0  0  0
   -0.9717    1.2762   -0.9263 C   0  0  0  0  0  0  0  0  0  0  0  0
    0.2150    1.5206   -1.1526 O   0  0  0  0  0  0  0  0  0  0  0  0
   -2.0530    2.2732   -1.2704 C   0  0  0  0  0  0  0  0  0  0  0  0
   -0.0823   -1.4010   -0.9851 H   0  0  0  0  0  0  0  0  0  0  0  0
   -1.2363   -3.8021    1.2533 H   0  0  0  0  0  0  0  0  0  0  0  0
    0.7983   -1.2738    1.6931 H   0  0  0  0  0  0  0  0  0  0  0  0
    0.4831    0.4037    1.2756 H   0  0  0  0  0  0  0  0  0  0  0  0
    2.5663   -1.4971    0.1540 H   0  0  0  0  0  0  0  0  0  0  0  0
    1.9017   -0.2757   -0.9533 H   0  0  0  0  0  0  0  0  0  0  0  0
    1.7509    1.7877   -0.0703 H   0  0  0  0  0  0  0  0  0  0  0  0
   -2.3594   -0.0553   -0.1784 H   0  0  0  0  0  0  0  0  0  0  0  0
   -1.9755    2.5204   -2.3326 H   0  0  0  0  0  0  0  0  0  0  0  0
   -1.8728    3.1934   -0.7072 H   0  0  0  0  0  0  0  0  0  0  0  0
   -3.0628    1.9143   -1.0545 H   0  0  0  0  0  0  0  0  0  0  0  0
  1 14  1  6  0  0  0
  1  2  1  0  0  0  0
  1  5  1  0  0  0  0
  2  3  2  0  0  0  0
  2  4  1  0  0  0  0
  4 15  1  0  0  0  0
  5 17  1  0  0  0  0
  5 16  1  0  0  0  0
  6 18  1  0  0  0  0
  6  7  1  0  0  0  0
  6  5  1  0  0  0  0
  7  8  2  0  0  0  0
  9  7  1  0  0  0  0
 10 21  1  0  0  0  0
 10  1  1  0  0  0  0
 11 10  1  0  0  0  0
 12 11  2  0  0  0  0
 13 24  1  0  0  0  0
 13 11  1  0  0  0  0
 13 23  1  0  0  0  0
 19  6  1  0  0  0  0
 20  9  1  0  0  0  0
 22 13  1  0  0  0  0
M  END
