omegapdb_1m5f_23.xyz
 OpenBabel12161914463D

 25 25  0  0  1  0  0  0  0  0999 V2000
   -1.3019   -3.7287   -1.2389 O   0  0  0  0  0  0  0  0  0  0  0  0
   -0.7499   -2.9281   -0.3263 C   0  0  0  0  0  0  0  0  0  0  0  0
    0.0478   -3.3270    0.4837 O   0  0  0  0  0  0  0  0  0  0  0  0
   -1.2284   -1.5077   -0.3758 C   0  0  0  0  0  0  0  0  0  0  0  0
   -2.2044   -1.2058   -1.1909 N   0  0  0  0  0  0  0  0  0  0  0  0
   -2.4512    0.1208   -0.9992 O   0  0  0  0  0  0  0  0  0  0  0  0
   -1.6199    0.6129   -0.0601 C   0  0  0  0  0  0  0  0  0  0  0  0
   -0.7765   -0.3766    0.3660 C   0  0  0  0  0  0  0  0  0  0  0  0
    0.4274   -0.3031    1.2582 C   0  0  0  0  0  0  0  0  0  0  0  0
    1.5945    0.5081    0.6805 C   0  0  2  0  0  0  0  0  0  0  0  0
    1.2812    1.9328    0.6134 N   0  0  0  0  0  0  0  0  0  0  0  0
    1.9875   -0.0001   -0.7004 C   0  0  0  0  0  0  0  0  0  0  0  0
    1.6811   -1.0607   -1.1830 O   0  0  0  0  0  0  0  0  0  0  0  0
    2.8098    0.8645   -1.3358 O   0  0  0  0  0  0  0  0  0  0  0  0
   -1.7913    2.0528    0.2682 C   0  0  0  0  0  0  0  0  0  0  0  0
   -1.9412   -3.2271   -1.7744 H   0  0  0  0  0  0  0  0  0  0  0  0
    0.7695   -1.3231    1.4511 H   0  0  0  0  0  0  0  0  0  0  0  0
    0.1575    0.1425    2.2241 H   0  0  0  0  0  0  0  0  0  0  0  0
    2.4805    0.2977    1.3097 H   0  0  0  0  0  0  0  0  0  0  0  0
    2.0141    2.4253    0.1114 H   0  0  0  0  0  0  0  0  0  0  0  0
    1.2562    2.3123    1.5557 H   0  0  0  0  0  0  0  0  0  0  0  0
    3.0260    0.4489   -2.1870 H   0  0  0  0  0  0  0  0  0  0  0  0
   -1.6130    2.2362    1.3307 H   0  0  0  0  0  0  0  0  0  0  0  0
   -2.7965    2.3864    0.0057 H   0  0  0  0  0  0  0  0  0  0  0  0
   -1.0591    2.6469   -0.2867 H   0  0  0  0  0  0  0  0  0  0  0  0
  1  2  1  0  0  0  0
  2  3  2  0  0  0  0
  4  2  1  0  0  0  0
  4  8  1  0  0  0  0
  5  6  1  0  0  0  0
  5  4  2  0  0  0  0
  6  7  1  0  0  0  0
  7 15  1  0  0  0  0
  7  8  2  0  0  0  0
  8  9  1  0  0  0  0
  9 17  1  0  0  0  0
  9 18  1  0  0  0  0
 10  9  1  0  0  0  0
 10 19  1  1  0  0  0
 11 10  1  0  0  0  0
 11 21  1  0  0  0  0
 12 10  1  0  0  0  0
 13 12  2  0  0  0  0
 14 12  1  0  0  0  0
 15 23  1  0  0  0  0
 16  1  1  0  0  0  0
 20 11  1  0  0  0  0
 22 14  1  0  0  0  0
 24 15  1  0  0  0  0
 25 15  1  0  0  0  0
M  END
