omegacsd_GALSEM_10.xyz
 OpenBabel12161914463D

 39 40  0  0  0  0  0  0  0  0999 V2000
    0.6050   -0.0684    2.4307 S   0  0  0  0  0  0  0  0  0  0  0  0
   -0.0109    1.1626    1.9382 O   0  0  0  0  0  0  0  0  0  0  0  0
    0.0751   -0.7067    3.6219 O   0  0  0  0  0  0  0  0  0  0  0  0
    2.2148    0.2143    2.7674 N   0  0  0  0  0  0  0  0  0  0  0  0
    3.0653    0.7518    1.8087 C   0  0  0  0  0  0  0  0  0  0  0  0
    2.7241    0.8480    0.6508 O   0  0  0  0  0  0  0  0  0  0  0  0
    4.4273    1.1440    2.3392 C   0  0  0  0  0  0  0  0  0  0  0  0
    5.3480    1.6259    1.2257 C   0  0  0  0  0  0  0  0  0  0  0  0
    0.7034   -1.2408    1.1052 C   0  0  0  0  0  0  0  0  0  0  0  0
   -0.1893   -1.2175    0.0058 C   0  0  0  0  0  0  0  0  0  0  0  0
   -1.0441   -0.1616   -0.1809 N   0  0  0  0  0  0  0  0  0  0  0  0
   -1.9329    0.0692   -1.2339 C   0  0  0  0  0  0  0  0  0  0  0  0
   -3.1709    0.6268   -0.9046 C   0  0  0  0  0  0  0  0  0  0  0  0
   -4.0980    0.9050   -1.8982 C   0  0  0  0  0  0  0  0  0  0  0  0
   -3.7979    0.6598   -3.2366 C   0  0  0  0  0  0  0  0  0  0  0  0
   -2.5521    0.1393   -3.5652 C   0  0  0  0  0  0  0  0  0  0  0  0
   -1.6179   -0.1566   -2.5764 C   0  0  0  0  0  0  0  0  0  0  0  0
   -5.4396    1.4806   -1.5400 C   0  0  0  0  0  0  0  0  0  0  0  0
   -5.5627    1.7052   -0.2203 F   0  0  0  0  0  0  0  0  0  0  0  0
   -5.6592    2.6508   -2.1709 F   0  0  0  0  0  0  0  0  0  0  0  0
   -6.4416    0.6568   -1.9043 F   0  0  0  0  0  0  0  0  0  0  0  0
   -0.1713   -2.3447   -0.8250 C   0  0  0  0  0  0  0  0  0  0  0  0
    0.7471   -3.3558   -0.5840 C   0  0  0  0  0  0  0  0  0  0  0  0
    1.6243   -3.3599    0.4224 N   0  0  0  0  0  0  0  0  0  0  0  0
    1.5768   -2.3168    1.2464 C   0  0  0  0  0  0  0  0  0  0  0  0
    2.4429    0.2218    3.7538 H   0  0  0  0  0  0  0  0  0  0  0  0
    4.2964    1.9239    3.1017 H   0  0  0  0  0  0  0  0  0  0  0  0
    4.8587    0.2736    2.8508 H   0  0  0  0  0  0  0  0  0  0  0  0
    6.3375    1.8764    1.6196 H   0  0  0  0  0  0  0  0  0  0  0  0
    4.9297    2.5083    0.7351 H   0  0  0  0  0  0  0  0  0  0  0  0
    5.4598    0.8526    0.4613 H   0  0  0  0  0  0  0  0  0  0  0  0
   -1.0400    0.5221    0.5785 H   0  0  0  0  0  0  0  0  0  0  0  0
   -3.4021    0.8376    0.1375 H   0  0  0  0  0  0  0  0  0  0  0  0
   -4.5313    0.8837   -4.0037 H   0  0  0  0  0  0  0  0  0  0  0  0
   -2.3026   -0.0492   -4.6042 H   0  0  0  0  0  0  0  0  0  0  0  0
   -0.6399   -0.5452   -2.8447 H   0  0  0  0  0  0  0  0  0  0  0  0
   -0.8846   -2.4557   -1.6341 H   0  0  0  0  0  0  0  0  0  0  0  0
    0.7771   -4.2191   -1.2458 H   0  0  0  0  0  0  0  0  0  0  0  0
    2.2753   -2.3419    2.0811 H   0  0  0  0  0  0  0  0  0  0  0  0
  1  4  1  0  0  0  0
  1  3  2  0  0  0  0
  2  1  2  0  0  0  0
  4 26  1  0  0  0  0
  5  7  1  0  0  0  0
  5  4  1  0  0  0  0
  6  5  2  0  0  0  0
  7 28  1  0  0  0  0
  7 27  1  0  0  0  0
  8 29  1  0  0  0  0
  8  7  1  0  0  0  0
  9 25  1  0  0  0  0
  9  1  1  0  0  0  0
 10  9  2  0  0  0  0
 11 10  1  0  0  0  0
 11 32  1  0  0  0  0
 12 13  1  0  0  0  0
 12 11  1  0  0  0  0
 13 33  1  0  0  0  0
 14 18  1  0  0  0  0
 14 13  2  0  0  0  0
 15 14  1  0  0  0  0
 16 15  2  0  0  0  0
 16 17  1  0  0  0  0
 17 12  2  0  0  0  0
 18 19  1  0  0  0  0
 20 18  1  0  0  0  0
 21 18  1  0  0  0  0
 22 23  2  0  0  0  0
 22 10  1  0  0  0  0
 23 24  1  0  0  0  0
 24 25  2  0  0  0  0
 25 39  1  0  0  0  0
 30  8  1  0  0  0  0
 31  8  1  0  0  0  0
 34 15  1  0  0  0  0
 35 16  1  0  0  0  0
 36 17  1  0  0  0  0
 37 22  1  0  0  0  0
 38 23  1  0  0  0  0
M  END
