omegacsd_CDBMPI10_12.xyz
 OpenBabel12161914463D

 46 48  0  0  1  0  0  0  0  0999 V2000
    2.2351   -1.2664    2.3344 O   0  0  0  0  0  0  0  0  0  0  0  0
    2.2968   -0.7382    1.2355 C   0  0  0  0  0  0  0  0  0  0  0  0
    1.1343   -0.4535    0.5172 N   0  0  0  0  0  0  0  0  0  0  0  0
    0.8165   -1.0387   -0.8087 C   0  0  1  0  0  0  0  0  0  0  0  0
   -0.2302   -0.1542   -1.4767 C   0  0  0  0  0  0  0  0  0  0  0  0
   -1.4151   -0.0512   -0.6315 N   0  0  0  0  0  0  0  0  0  0  0  0
   -1.1583    0.4196    0.7379 C   0  0  1  0  0  0  0  0  0  0  0  0
   -0.0679   -0.4509    1.3535 C   0  0  0  0  0  0  0  0  0  0  0  0
   -0.7979    1.9071    0.8004 C   0  0  0  0  0  0  0  0  0  0  0  0
   -2.5993    0.2037   -1.2924 C   0  0  0  0  0  0  0  0  0  0  0  0
   -2.6211    0.4433   -2.4907 O   0  0  0  0  0  0  0  0  0  0  0  0
   -3.8716    0.1967   -0.4902 C   0  0  0  0  0  0  0  0  0  0  0  0
   -4.1712   -0.7975    0.4422 C   0  0  0  0  0  0  0  0  0  0  0  0
   -5.3802   -0.7678    1.1314 C   0  0  0  0  0  0  0  0  0  0  0  0
   -6.2927    0.2572    0.8962 C   0  0  0  0  0  0  0  0  0  0  0  0
   -6.0046    1.2402   -0.0475 C   0  0  0  0  0  0  0  0  0  0  0  0
   -4.8066    1.1998   -0.7502 C   0  0  0  0  0  0  0  0  0  0  0  0
    1.9982   -1.2885   -1.7329 C   0  0  0  0  0  0  0  0  0  0  0  0
    3.6288   -0.3560    0.6600 C   0  0  0  0  0  0  0  0  0  0  0  0
    3.8142    0.7936   -0.1081 C   0  0  0  0  0  0  0  0  0  0  0  0
    5.0770    1.1111   -0.5997 C   0  0  0  0  0  0  0  0  0  0  0  0
    6.1631    0.2886   -0.3142 C   0  0  0  0  0  0  0  0  0  0  0  0
    5.9851   -0.8475    0.4732 C   0  0  0  0  0  0  0  0  0  0  0  0
    4.7256   -1.1599    0.9700 C   0  0  0  0  0  0  0  0  0  0  0  0
    0.3264   -2.0069   -0.6128 H   0  0  0  0  0  0  0  0  0  0  0  0
   -0.5453   -0.5816   -2.4310 H   0  0  0  0  0  0  0  0  0  0  0  0
    0.1941    0.8397   -1.6901 H   0  0  0  0  0  0  0  0  0  0  0  0
   -2.0744    0.2659    1.3153 H   0  0  0  0  0  0  0  0  0  0  0  0
    0.1968   -0.0826    2.3468 H   0  0  0  0  0  0  0  0  0  0  0  0
   -0.4403   -1.4792    1.4794 H   0  0  0  0  0  0  0  0  0  0  0  0
   -0.6579    2.2085    1.8447 H   0  0  0  0  0  0  0  0  0  0  0  0
   -1.5949    2.5224    0.3727 H   0  0  0  0  0  0  0  0  0  0  0  0
    0.1331    2.1137    0.2625 H   0  0  0  0  0  0  0  0  0  0  0  0
   -3.4607   -1.6010    0.6214 H   0  0  0  0  0  0  0  0  0  0  0  0
   -5.6017   -1.5387    1.8635 H   0  0  0  0  0  0  0  0  0  0  0  0
   -7.2314    0.2847    1.4433 H   0  0  0  0  0  0  0  0  0  0  0  0
   -6.7184    2.0374   -0.2399 H   0  0  0  0  0  0  0  0  0  0  0  0
   -4.5790    1.9454   -1.5080 H   0  0  0  0  0  0  0  0  0  0  0  0
    2.4666   -0.3529   -2.0549 H   0  0  0  0  0  0  0  0  0  0  0  0
    2.7633   -1.9141   -1.2679 H   0  0  0  0  0  0  0  0  0  0  0  0
    1.6374   -1.8050   -2.6282 H   0  0  0  0  0  0  0  0  0  0  0  0
    2.9648    1.4330   -0.3344 H   0  0  0  0  0  0  0  0  0  0  0  0
    5.2101    2.0026   -1.2055 H   0  0  0  0  0  0  0  0  0  0  0  0
    7.1491    0.5356   -0.6988 H   0  0  0  0  0  0  0  0  0  0  0  0
    6.8308   -1.4894    0.7069 H   0  0  0  0  0  0  0  0  0  0  0  0
    4.5740   -2.0282    1.6064 H   0  0  0  0  0  0  0  0  0  0  0  0
  2  1  2  0  0  0  0
  3  2  1  0  0  0  0
  3  8  1  0  0  0  0
  4 25  1  1  0  0  0
  4  3  1  0  0  0  0
  5  4  1  0  0  0  0
  5  6  1  0  0  0  0
  6  7  1  0  0  0  0
  7  9  1  0  0  0  0
  7 28  1  1  0  0  0
  7  8  1  0  0  0  0
  8 30  1  0  0  0  0
  8 29  1  0  0  0  0
  9 31  1  0  0  0  0
 10  6  1  0  0  0  0
 10 12  1  0  0  0  0
 11 10  2  0  0  0  0
 12 13  1  0  0  0  0
 13 34  1  0  0  0  0
 13 14  2  0  0  0  0
 14 35  1  0  0  0  0
 15 14  1  0  0  0  0
 15 36  1  0  0  0  0
 16 15  2  0  0  0  0
 17 12  2  0  0  0  0
 17 16  1  0  0  0  0
 18 40  1  0  0  0  0
 18  4  1  0  0  0  0
 19 24  1  0  0  0  0
 19  2  1  0  0  0  0
 20 19  2  0  0  0  0
 21 22  2  0  0  0  0
 21 20  1  0  0  0  0
 22 23  1  0  0  0  0
 23 45  1  0  0  0  0
 23 24  2  0  0  0  0
 24 46  1  0  0  0  0
 26  5  1  0  0  0  0
 27  5  1  0  0  0  0
 32  9  1  0  0  0  0
 33  9  1  0  0  0  0
 37 16  1  0  0  0  0
 38 17  1  0  0  0  0
 39 18  1  0  0  0  0
 41 18  1  0  0  0  0
 42 20  1  0  0  0  0
 43 21  1  0  0  0  0
 44 22  1  0  0  0  0
M  END
