24.1192
 OpenBabel10231816213D

 22 21  0  0  1  0  0  0  0  0999 V2000
    2.0030    1.0330    1.5104 O   0  0  0  0  0  0  0  0  0  0  0  0
    1.9079    0.4504    0.4261 C   0  0  0  0  0  0  0  0  0  0  0  0
    2.7198    0.7067   -0.6099 O   0  0  0  0  0  0  0  0  0  0  0  0
    0.8475   -0.6101    0.1334 C   0  0  2  0  0  0  0  0  0  0  0  0
    1.2449   -1.3526   -1.0313 O   0  0  0  0  0  0  0  0  0  0  0  0
   -0.5517   -0.0099   -0.0876 C   0  0  0  0  0  0  0  0  0  0  0  0
   -1.5657   -1.1723   -0.1343 C   0  0  0  0  0  0  0  0  0  0  0  0
   -0.6240    0.7765   -1.4047 C   0  0  0  0  0  0  0  0  0  0  0  0
   -0.9354    0.9272    1.0648 C   0  0  0  0  0  0  0  0  0  0  0  0
   -0.6216    0.3582    2.3305 O   0  0  0  0  0  0  0  0  0  0  0  0
    2.4566    0.1063   -1.3462 H   0  0  0  0  0  0  0  0  0  0  0  0
    0.8173   -1.2871    0.9955 H   0  0  0  0  0  0  0  0  0  0  0  0
    1.8577   -2.0513   -0.7378 H   0  0  0  0  0  0  0  0  0  0  0  0
   -1.2863   -1.9246   -0.8816 H   0  0  0  0  0  0  0  0  0  0  0  0
   -2.5729   -0.8144   -0.3837 H   0  0  0  0  0  0  0  0  0  0  0  0
   -1.6249   -1.6739    0.8391 H   0  0  0  0  0  0  0  0  0  0  0  0
    0.1219    1.5793   -1.4300 H   0  0  0  0  0  0  0  0  0  0  0  0
   -0.4490    0.1312   -2.2726 H   0  0  0  0  0  0  0  0  0  0  0  0
   -1.6107    1.2410   -1.5240 H   0  0  0  0  0  0  0  0  0  0  0  0
   -2.0141    1.1085    1.0523 H   0  0  0  0  0  0  0  0  0  0  0  0
   -0.4306    1.8925    0.9689 H   0  0  0  0  0  0  0  0  0  0  0  0
    0.3102    0.5850    2.5230 H   0  0  0  0  0  0  0  0  0  0  0  0
  2  1  2  0  0  0  0
  3  2  1  0  0  0  0
  4  2  1  0  0  0  0
  4 12  1  1  0  0  0
  5 13  1  0  0  0  0
  5  4  1  0  0  0  0
  6  4  1  0  0  0  0
  6  9  1  0  0  0  0
  7  6  1  0  0  0  0
  7 16  1  0  0  0  0
  8  6  1  0  0  0  0
  9 10  1  0  0  0  0
 10 22  1  0  0  0  0
 11  3  1  0  0  0  0
 14  7  1  0  0  0  0
 15  7  1  0  0  0  0
 17  8  1  0  0  0  0
 18  8  1  0  0  0  0
 19  8  1  0  0  0  0
 20  9  1  0  0  0  0
 21  9  1  0  0  0  0
M  END
