35.1196
 OpenBabel10231816213D

 43 44  0  0  0  0  0  0  0  0999 V2000
   -3.2967    1.8482    1.3781 C   0  0  0  0  0  0  0  0  0  0  0  0
   -3.1693    1.8841    2.5923 O   0  0  0  0  0  0  0  0  0  0  0  0
   -2.5484    0.9760    0.4938 C   0  0  0  0  0  0  0  0  0  0  0  0
   -2.9345    1.2095   -0.8103 C   0  0  0  0  0  0  0  0  0  0  0  0
   -3.9718    2.2674   -0.7982 C   0  0  0  0  0  0  0  0  0  0  0  0
   -4.1255    2.5935    0.6020 O   0  0  0  0  0  0  0  0  0  0  0  0
   -2.3432    0.4960   -1.8524 C   0  0  0  0  0  0  0  0  0  0  0  0
   -2.6956    0.7607   -3.2884 C   0  0  0  0  0  0  0  0  0  0  0  0
   -1.3780   -0.4818   -1.4999 C   0  0  0  0  0  0  0  0  0  0  0  0
   -0.9567   -0.6887   -0.1619 C   0  0  0  0  0  0  0  0  0  0  0  0
   -1.5739    0.0562    0.8485 C   0  0  0  0  0  0  0  0  0  0  0  0
   -1.2151   -0.1294    2.1532 O   0  0  0  0  0  0  0  0  0  0  0  0
    0.1550   -1.6604    0.1709 C   0  0  0  0  0  0  0  0  0  0  0  0
    1.4755   -0.9764    0.4146 C   0  0  0  0  0  0  0  0  0  0  0  0
    2.1597   -0.9146    1.5767 C   0  0  0  0  0  0  0  0  0  0  0  0
    3.4956   -0.2059    1.7246 C   0  0  0  0  0  0  0  0  0  0  0  0
    4.0140    0.5360    0.5000 C   0  0  0  0  0  0  0  0  0  0  0  0
    5.3368    1.1744    0.8011 C   0  0  0  0  0  0  0  0  0  0  0  0
    6.4052    0.5951    0.6439 O   0  0  0  0  0  0  0  0  0  0  0  0
    5.2709    2.4319    1.2911 O   0  0  0  0  0  0  0  0  0  0  0  0
    1.6783   -1.5267    2.8712 C   0  0  0  0  0  0  0  0  0  0  0  0
   -0.7533   -1.1927   -2.4972 O   0  0  0  0  0  0  0  0  0  0  0  0
   -1.5075   -2.3584   -2.8455 C   0  0  0  0  0  0  0  0  0  0  0  0
   -3.6631    3.1758   -1.3245 H   0  0  0  0  0  0  0  0  0  0  0  0
   -4.9401    1.9150   -1.1691 H   0  0  0  0  0  0  0  0  0  0  0  0
   -2.0677    0.1891   -3.9809 H   0  0  0  0  0  0  0  0  0  0  0  0
   -2.5440    1.8163   -3.5362 H   0  0  0  0  0  0  0  0  0  0  0  0
   -3.7357    0.4851   -3.4890 H   0  0  0  0  0  0  0  0  0  0  0  0
   -1.7360    0.4824    2.7172 H   0  0  0  0  0  0  0  0  0  0  0  0
   -0.1568   -2.2792    1.0139 H   0  0  0  0  0  0  0  0  0  0  0  0
    0.3024   -2.3785   -0.6433 H   0  0  0  0  0  0  0  0  0  0  0  0
    1.8785   -0.5094   -0.4808 H   0  0  0  0  0  0  0  0  0  0  0  0
    3.4135    0.5043    2.5587 H   0  0  0  0  0  0  0  0  0  0  0  0
    4.2437   -0.9532    2.0284 H   0  0  0  0  0  0  0  0  0  0  0  0
    3.3074    1.2939    0.1412 H   0  0  0  0  0  0  0  0  0  0  0  0
    4.1776   -0.1603   -0.3324 H   0  0  0  0  0  0  0  0  0  0  0  0
    4.3731    2.7915    1.3962 H   0  0  0  0  0  0  0  0  0  0  0  0
    0.8346   -2.2104    2.7589 H   0  0  0  0  0  0  0  0  0  0  0  0
    2.4819   -2.1042    3.3401 H   0  0  0  0  0  0  0  0  0  0  0  0
    1.3727   -0.7355    3.5648 H   0  0  0  0  0  0  0  0  0  0  0  0
   -0.9869   -2.8410   -3.6774 H   0  0  0  0  0  0  0  0  0  0  0  0
   -2.5193   -2.1062   -3.1800 H   0  0  0  0  0  0  0  0  0  0  0  0
   -1.5570   -3.0695   -2.0140 H   0  0  0  0  0  0  0  0  0  0  0  0
  1  2  2  0  0  0  0
  3 11  1  0  0  0  0
  3  1  1  0  0  0  0
  4  5  1  0  0  0  0
  4  3  2  0  0  0  0
  5  6  1  0  0  0  0
  6  1  1  0  0  0  0
  7  9  2  0  0  0  0
  7  4  1  0  0  0  0
  8  7  1  0  0  0  0
  9 10  1  0  0  0  0
 10 13  1  0  0  0  0
 10 11  2  0  0  0  0
 11 12  1  0  0  0  0
 12 29  1  0  0  0  0
 13 14  1  0  0  0  0
 13 30  1  0  0  0  0
 14 15  2  0  0  0  0
 15 16  1  0  0  0  0
 15 21  1  0  0  0  0
 16 34  1  0  0  0  0
 16 33  1  0  0  0  0
 17 18  1  0  0  0  0
 17 16  1  0  0  0  0
 18 20  1  0  0  0  0
 19 18  2  0  0  0  0
 20 37  1  0  0  0  0
 21 39  1  0  0  0  0
 21 40  1  0  0  0  0
 22  9  1  0  0  0  0
 23 22  1  0  0  0  0
 23 43  1  0  0  0  0
 24  5  1  0  0  0  0
 25  5  1  0  0  0  0
 26  8  1  0  0  0  0
 27  8  1  0  0  0  0
 28  8  1  0  0  0  0
 31 13  1  0  0  0  0
 32 14  1  0  0  0  0
 35 17  1  0  0  0  0
 36 17  1  0  0  0  0
 38 21  1  0  0  0  0
 41 23  1  0  0  0  0
 42 23  1  0  0  0  0
M  END
