-21.3185
 OpenBabel10231816213D

 34 36  0  0  1  0  0  0  0  0999 V2000
    4.2367    1.7131   -0.5152 O   0  0  0  0  0  0  0  0  0  0  0  0
    2.9938    1.6677    0.1737 C   0  0  0  0  0  0  0  0  0  0  0  0
    2.4757    0.2376    0.2631 C   0  0  2  0  0  0  0  0  0  0  0  0
    2.0881   -0.3041   -1.1327 C   0  0  1  0  0  0  0  0  0  0  0  0
    3.2243   -0.7608   -1.8489 O   0  0  0  0  0  0  0  0  0  0  0  0
    1.0496   -1.4010   -0.8523 C   0  0  0  0  0  0  0  0  0  0  0  0
    0.3003   -0.8770    0.3642 C   0  0  2  0  0  0  0  0  0  0  0  0
   -1.1345   -0.6887    0.2322 N   0  0  0  0  0  0  0  0  0  0  0  0
   -1.9657   -1.8079    0.2947 C   0  0  0  0  0  0  0  0  0  0  0  0
   -1.5643   -2.9626    0.4271 O   0  0  0  0  0  0  0  0  0  0  0  0
   -3.3066   -1.5512    0.1991 N   0  0  0  0  0  0  0  0  0  0  0  0
   -3.8877   -0.3250    0.0334 C   0  0  0  0  0  0  0  0  0  0  0  0
   -5.1017   -0.1846   -0.0308 O   0  0  0  0  0  0  0  0  0  0  0  0
   -2.9587    0.8249   -0.0653 C   0  0  0  0  0  0  0  0  0  0  0  0
   -1.6449    0.5809    0.0361 C   0  0  0  0  0  0  0  0  0  0  0  0
   -3.5649    2.1770   -0.2733 C   0  0  0  0  0  0  0  0  0  0  0  0
    1.2068    0.1017    1.0667 C   0  0  1  0  0  0  0  0  0  0  0  0
    0.8759   -1.1991    1.7305 C   0  0  0  0  0  0  0  0  0  0  0  0
    4.1600    1.1517   -1.3126 H   0  0  0  0  0  0  0  0  0  0  0  0
    3.1494    2.0816    1.1751 H   0  0  0  0  0  0  0  0  0  0  0  0
    2.2795    2.3180   -0.3428 H   0  0  0  0  0  0  0  0  0  0  0  0
    3.2650   -0.3923    0.6952 H   0  0  0  0  0  0  0  0  0  0  0  0
    1.6121    0.4844   -1.7276 H   0  0  0  0  0  0  0  0  0  0  0  0
    3.6480   -1.4785   -1.3435 H   0  0  0  0  0  0  0  0  0  0  0  0
    0.4014   -1.5536   -1.7216 H   0  0  0  0  0  0  0  0  0  0  0  0
    1.5301   -2.3628   -0.6343 H   0  0  0  0  0  0  0  0  0  0  0  0
   -3.9210   -2.3469    0.2610 H   0  0  0  0  0  0  0  0  0  0  0  0
   -0.9283    1.3921   -0.0321 H   0  0  0  0  0  0  0  0  0  0  0  0
   -4.2509    2.4275    0.5436 H   0  0  0  0  0  0  0  0  0  0  0  0
   -4.1259    2.2063   -1.2135 H   0  0  0  0  0  0  0  0  0  0  0  0
   -2.8037    2.9630   -0.3171 H   0  0  0  0  0  0  0  0  0  0  0  0
    0.8119    1.0164    1.4835 H   0  0  0  0  0  0  0  0  0  0  0  0
    1.6460   -1.9594    1.8029 H   0  0  0  0  0  0  0  0  0  0  0  0
    0.2042   -1.1887    2.5816 H   0  0  0  0  0  0  0  0  0  0  0  0
  1  2  1  0  0  0  0
  2  3  1  0  0  0  0
  2 20  1  0  0  0  0
  3 22  1  1  0  0  0
  3 17  1  0  0  0  0
  4 23  1  6  0  0  0
  4  6  1  0  0  0  0
  4  3  1  0  0  0  0
  5 24  1  0  0  0  0
  5  4  1  0  0  0  0
  6 26  1  0  0  0  0
  6  7  1  0  0  0  0
  7  8  1  6  0  0  0
  7 17  1  0  0  0  0
  7 18  1  0  0  0  0
  8  9  1  0  0  0  0
  9 10  2  0  0  0  0
 11 27  1  0  0  0  0
 11  9  1  0  0  0  0
 12 11  1  0  0  0  0
 13 12  2  0  0  0  0
 14 12  1  0  0  0  0
 14 15  2  0  0  0  0
 15  8  1  0  0  0  0
 16 14  1  0  0  0  0
 16 29  1  0  0  0  0
 17 32  1  1  0  0  0
 17 18  1  0  0  0  0
 18 33  1  0  0  0  0
 18 34  1  0  0  0  0
 19  1  1  0  0  0  0
 21  2  1  0  0  0  0
 25  6  1  0  0  0  0
 28 15  1  0  0  0  0
 30 16  1  0  0  0  0
 31 16  1  0  0  0  0
M  END
