32.8721
 OpenBabel10231816213D

 22 21  0  0  1  0  0  0  0  0999 V2000
    1.9876   -0.4760   -2.1670 O   0  0  0  0  0  0  0  0  0  0  0  0
    1.8691   -0.4471   -0.9520 C   0  0  0  0  0  0  0  0  0  0  0  0
    2.8639   -0.0306   -0.1448 O   0  0  0  0  0  0  0  0  0  0  0  0
    0.5860   -0.9198   -0.2518 C   0  0  2  0  0  0  0  0  0  0  0  0
   -0.1407   -1.7175   -1.2017 O   0  0  0  0  0  0  0  0  0  0  0  0
   -0.3225    0.2270    0.2660 C   0  0  0  0  0  0  0  0  0  0  0  0
    0.4137    1.0439    1.3428 C   0  0  0  0  0  0  0  0  0  0  0  0
   -0.7530    1.1581   -0.8869 C   0  0  0  0  0  0  0  0  0  0  0  0
   -1.5849   -0.3814    0.9205 C   0  0  0  0  0  0  0  0  0  0  0  0
   -2.4874   -0.9333   -0.0269 O   0  0  0  0  0  0  0  0  0  0  0  0
    2.6619   -0.0895    0.8060 H   0  0  0  0  0  0  0  0  0  0  0  0
    0.8671   -1.5958    0.5667 H   0  0  0  0  0  0  0  0  0  0  0  0
    0.2618   -1.5186   -2.0796 H   0  0  0  0  0  0  0  0  0  0  0  0
    1.2322    1.6299    0.9153 H   0  0  0  0  0  0  0  0  0  0  0  0
   -0.2653    1.7520    1.8277 H   0  0  0  0  0  0  0  0  0  0  0  0
    0.8238    0.3878    2.1175 H   0  0  0  0  0  0  0  0  0  0  0  0
   -1.4173    1.9442   -0.5151 H   0  0  0  0  0  0  0  0  0  0  0  0
    0.1058    1.6458   -1.3567 H   0  0  0  0  0  0  0  0  0  0  0  0
   -1.2906    0.6080   -1.6656 H   0  0  0  0  0  0  0  0  0  0  0  0
   -1.3123   -1.1639    1.6336 H   0  0  0  0  0  0  0  0  0  0  0  0
   -2.1348    0.3916    1.4683 H   0  0  0  0  0  0  0  0  0  0  0  0
   -1.9642   -1.5151   -0.6163 H   0  0  0  0  0  0  0  0  0  0  0  0
  1  2  2  0  0  0  0
  2  4  1  0  0  0  0
  2  3  1  0  0  0  0
  3 11  1  0  0  0  0
  4  6  1  0  0  0  0
  4 12  1  1  0  0  0
  5  4  1  0  0  0  0
  6  9  1  0  0  0  0
  6  7  1  0  0  0  0
  7 15  1  0  0  0  0
  7 16  1  0  0  0  0
  8 17  1  0  0  0  0
  8  6  1  0  0  0  0
  9 21  1  0  0  0  0
  9 20  1  0  0  0  0
 10  9  1  0  0  0  0
 13  5  1  0  0  0  0
 14  7  1  0  0  0  0
 18  8  1  0  0  0  0
 19  8  1  0  0  0  0
 22 10  1  0  0  0  0
M  END
