-25.1559
 OpenBabel10231816213D

 34 36  0  0  1  0  0  0  0  0999 V2000
    3.3032    2.3190   -0.1825 O   0  0  0  0  0  0  0  0  0  0  0  0
    3.0356    1.1047   -0.8794 C   0  0  0  0  0  0  0  0  0  0  0  0
    2.7293    0.0237    0.1544 C   0  0  2  0  0  0  0  0  0  0  0  0
    2.4821   -1.3463   -0.5187 C   0  0  1  0  0  0  0  0  0  0  0  0
    2.8479   -2.4308    0.3428 O   0  0  0  0  0  0  0  0  0  0  0  0
    0.9630   -1.4228   -0.7650 C   0  0  0  0  0  0  0  0  0  0  0  0
    0.3278   -0.5077    0.2749 C   0  0  2  0  0  0  0  0  0  0  0  0
   -0.9748    0.0473   -0.0573 N   0  0  0  0  0  0  0  0  0  0  0  0
   -1.0821    0.9888   -1.0859 C   0  0  0  0  0  0  0  0  0  0  0  0
   -0.1707    1.4022   -1.7903 O   0  0  0  0  0  0  0  0  0  0  0  0
   -2.3592    1.4537   -1.3035 N   0  0  0  0  0  0  0  0  0  0  0  0
   -3.4959    1.0829   -0.6438 C   0  0  0  0  0  0  0  0  0  0  0  0
   -4.5878    1.5646   -0.9157 O   0  0  0  0  0  0  0  0  0  0  0  0
   -3.3269    0.0517    0.4098 C   0  0  0  0  0  0  0  0  0  0  0  0
   -2.0892   -0.4081    0.6369 C   0  0  0  0  0  0  0  0  0  0  0  0
   -4.5575   -0.3972    1.1376 C   0  0  0  0  0  0  0  0  0  0  0  0
    1.4219    0.3481    0.8520 C   0  0  1  0  0  0  0  0  0  0  0  0
    0.7517   -0.6614    1.7252 C   0  0  0  0  0  0  0  0  0  0  0  0
    3.3404    3.0327   -0.8400 H   0  0  0  0  0  0  0  0  0  0  0  0
    3.9200    0.8452   -1.4680 H   0  0  0  0  0  0  0  0  0  0  0  0
    2.1971    1.2516   -1.5634 H   0  0  0  0  0  0  0  0  0  0  0  0
    3.5434   -0.0231    0.8881 H   0  0  0  0  0  0  0  0  0  0  0  0
    3.0494   -1.4719   -1.4449 H   0  0  0  0  0  0  0  0  0  0  0  0
    3.7807   -2.3202    0.5919 H   0  0  0  0  0  0  0  0  0  0  0  0
    0.5800   -2.4426   -0.6625 H   0  0  0  0  0  0  0  0  0  0  0  0
    0.7431   -1.0592   -1.7736 H   0  0  0  0  0  0  0  0  0  0  0  0
   -2.4546    2.1319   -2.0360 H   0  0  0  0  0  0  0  0  0  0  0  0
   -1.9033   -1.1671    1.3909 H   0  0  0  0  0  0  0  0  0  0  0  0
   -5.0443    0.4449    1.6426 H   0  0  0  0  0  0  0  0  0  0  0  0
   -5.2828   -0.8379    0.4448 H   0  0  0  0  0  0  0  0  0  0  0  0
   -4.3307   -1.1506    1.9007 H   0  0  0  0  0  0  0  0  0  0  0  0
    1.2476    1.4010    1.0388 H   0  0  0  0  0  0  0  0  0  0  0  0
    1.3082   -1.5478    2.0014 H   0  0  0  0  0  0  0  0  0  0  0  0
    0.0875   -0.2994    2.4976 H   0  0  0  0  0  0  0  0  0  0  0  0
  2  1  1  0  0  0  0
  2  3  1  0  0  0  0
  3 17  1  0  0  0  0
  3 22  1  1  0  0  0
  4 23  1  6  0  0  0
  4  3  1  0  0  0  0
  4  5  1  0  0  0  0
  5 24  1  0  0  0  0
  6 25  1  0  0  0  0
  6  4  1  0  0  0  0
  6  7  1  0  0  0  0
  7  8  1  6  0  0  0
  7 17  1  0  0  0  0
  7 18  1  0  0  0  0
  8 15  1  0  0  0  0
  9  8  1  0  0  0  0
 10  9  2  0  0  0  0
 11  9  1  0  0  0  0
 11 12  1  0  0  0  0
 12 14  1  0  0  0  0
 13 12  2  0  0  0  0
 14 15  2  0  0  0  0
 14 16  1  0  0  0  0
 15 28  1  0  0  0  0
 16 29  1  0  0  0  0
 16 31  1  0  0  0  0
 17 32  1  1  0  0  0
 17 18  1  0  0  0  0
 18 33  1  0  0  0  0
 18 34  1  0  0  0  0
 19  1  1  0  0  0  0
 20  2  1  0  0  0  0
 21  2  1  0  0  0  0
 26  6  1  0  0  0  0
 27 11  1  0  0  0  0
 30 16  1  0  0  0  0
M  END
