32.4141
 OpenBabel10231816213D

 22 21  0  0  1  0  0  0  0  0999 V2000
    2.7362    0.9800   -0.8639 O   0  0  0  0  0  0  0  0  0  0  0  0
    2.0611   -0.0338   -0.6585 C   0  0  0  0  0  0  0  0  0  0  0  0
    2.1668   -1.1013   -1.4658 O   0  0  0  0  0  0  0  0  0  0  0  0
    1.0347   -0.1643    0.4352 C   0  0  2  0  0  0  0  0  0  0  0  0
    1.1338   -1.4844    0.9759 O   0  0  0  0  0  0  0  0  0  0  0  0
   -0.3957    0.1874   -0.0229 C   0  0  0  0  0  0  0  0  0  0  0  0
   -1.0070   -0.9495   -0.8557 C   0  0  0  0  0  0  0  0  0  0  0  0
   -0.3851    1.4844   -0.8411 C   0  0  0  0  0  0  0  0  0  0  0  0
   -1.2732    0.4392    1.2181 C   0  0  0  0  0  0  0  0  0  0  0  0
   -1.2213   -0.6919    2.0839 O   0  0  0  0  0  0  0  0  0  0  0  0
    2.8565   -0.8857   -2.1220 H   0  0  0  0  0  0  0  0  0  0  0  0
    1.3370    0.5457    1.2186 H   0  0  0  0  0  0  0  0  0  0  0  0
    0.4200   -1.5535    1.6395 H   0  0  0  0  0  0  0  0  0  0  0  0
   -2.0273   -0.7028   -1.1736 H   0  0  0  0  0  0  0  0  0  0  0  0
   -1.0514   -1.8859   -0.2877 H   0  0  0  0  0  0  0  0  0  0  0  0
   -0.4149   -1.1354   -1.7575 H   0  0  0  0  0  0  0  0  0  0  0  0
    0.1007    1.3359   -1.8112 H   0  0  0  0  0  0  0  0  0  0  0  0
   -1.4040    1.8342   -1.0301 H   0  0  0  0  0  0  0  0  0  0  0  0
    0.1545    2.2765   -0.3069 H   0  0  0  0  0  0  0  0  0  0  0  0
   -0.9115    1.3242    1.7588 H   0  0  0  0  0  0  0  0  0  0  0  0
   -2.3128    0.6228    0.9199 H   0  0  0  0  0  0  0  0  0  0  0  0
   -1.5971   -0.4418    2.9472 H   0  0  0  0  0  0  0  0  0  0  0  0
  1  2  2  0  0  0  0
  2  4  1  0  0  0  0
  3  2  1  0  0  0  0
  4  5  1  0  0  0  0
  4 12  1  1  0  0  0
  5 13  1  0  0  0  0
  6  4  1  0  0  0  0
  6  9  1  0  0  0  0
  7 15  1  0  0  0  0
  7  6  1  0  0  0  0
  8 19  1  0  0  0  0
  8  6  1  0  0  0  0
  9 20  1  0  0  0  0
  9 10  1  0  0  0  0
 10 22  1  0  0  0  0
 11  3  1  0  0  0  0
 14  7  1  0  0  0  0
 16  7  1  0  0  0  0
 17  8  1  0  0  0  0
 18  8  1  0  0  0  0
 21  9  1  0  0  0  0
M  END
