46.4639
 OpenBabel10231816213D

 43 44  0  0  0  0  0  0  0  0999 V2000
   -3.5261    2.0093    1.4587 C   0  0  0  0  0  0  0  0  0  0  0  0
   -3.3954    2.1866    2.6629 O   0  0  0  0  0  0  0  0  0  0  0  0
   -2.6722    1.2634    0.5329 C   0  0  0  0  0  0  0  0  0  0  0  0
   -3.2304    1.3451   -0.7329 C   0  0  0  0  0  0  0  0  0  0  0  0
   -4.4634    2.1568   -0.6549 C   0  0  0  0  0  0  0  0  0  0  0  0
   -4.5603    2.5099    0.7341 O   0  0  0  0  0  0  0  0  0  0  0  0
   -2.6294    0.7281   -1.8257 C   0  0  0  0  0  0  0  0  0  0  0  0
   -3.2068    0.8350   -3.2127 C   0  0  0  0  0  0  0  0  0  0  0  0
   -1.4572   -0.0191   -1.5663 C   0  0  0  0  0  0  0  0  0  0  0  0
   -0.8494   -0.0924   -0.2808 C   0  0  0  0  0  0  0  0  0  0  0  0
   -1.4889    0.5660    0.7798 C   0  0  0  0  0  0  0  0  0  0  0  0
   -0.9986    0.5551    2.0501 O   0  0  0  0  0  0  0  0  0  0  0  0
    0.4208   -0.8945   -0.0891 C   0  0  0  0  0  0  0  0  0  0  0  0
    1.5289   -0.1279    0.5834 C   0  0  0  0  0  0  0  0  0  0  0  0
    2.2352   -0.5098    1.6677 C   0  0  0  0  0  0  0  0  0  0  0  0
    3.3749    0.3622    2.1693 C   0  0  0  0  0  0  0  0  0  0  0  0
    4.5078    0.5769    1.1586 C   0  0  0  0  0  0  0  0  0  0  0  0
    5.2805   -0.6738    0.8189 C   0  0  0  0  0  0  0  0  0  0  0  0
    6.5004   -0.7494    0.9212 O   0  0  0  0  0  0  0  0  0  0  0  0
    4.5682   -1.7030    0.3436 O   0  0  0  0  0  0  0  0  0  0  0  0
    2.0351   -1.8015    2.4296 C   0  0  0  0  0  0  0  0  0  0  0  0
   -0.8234   -0.6244   -2.6240 O   0  0  0  0  0  0  0  0  0  0  0  0
   -1.3233   -1.9460   -2.8481 C   0  0  0  0  0  0  0  0  0  0  0  0
   -5.3641    1.6001   -0.9190 H   0  0  0  0  0  0  0  0  0  0  0  0
   -4.4091    3.0825   -1.2292 H   0  0  0  0  0  0  0  0  0  0  0  0
   -4.1786    0.3364   -3.2756 H   0  0  0  0  0  0  0  0  0  0  0  0
   -2.5441    0.3787   -3.9588 H   0  0  0  0  0  0  0  0  0  0  0  0
   -3.3466    1.8815   -3.4968 H   0  0  0  0  0  0  0  0  0  0  0  0
   -0.1233    0.1411    2.0749 H   0  0  0  0  0  0  0  0  0  0  0  0
    0.1911   -1.8132    0.4568 H   0  0  0  0  0  0  0  0  0  0  0  0
    0.8036   -1.2143   -1.0637 H   0  0  0  0  0  0  0  0  0  0  0  0
    1.7385    0.8520    0.1490 H   0  0  0  0  0  0  0  0  0  0  0  0
    2.9585    1.3402    2.4462 H   0  0  0  0  0  0  0  0  0  0  0  0
    3.7806   -0.0788    3.0863 H   0  0  0  0  0  0  0  0  0  0  0  0
    5.2289    1.2965    1.5821 H   0  0  0  0  0  0  0  0  0  0  0  0
    4.1345    1.0305    0.2340 H   0  0  0  0  0  0  0  0  0  0  0  0
    3.6184   -1.5041    0.2906 H   0  0  0  0  0  0  0  0  0  0  0  0
    1.2543   -2.4457    2.0187 H   0  0  0  0  0  0  0  0  0  0  0  0
    2.9619   -2.3823    2.4434 H   0  0  0  0  0  0  0  0  0  0  0  0
    1.7718   -1.5813    3.4662 H   0  0  0  0  0  0  0  0  0  0  0  0
   -2.4009   -1.9497   -3.0400 H   0  0  0  0  0  0  0  0  0  0  0  0
   -0.8009   -2.3142   -3.7370 H   0  0  0  0  0  0  0  0  0  0  0  0
   -1.1015   -2.6083   -2.0046 H   0  0  0  0  0  0  0  0  0  0  0  0
  1  2  2  0  0  0  0
  3 11  1  0  0  0  0
  3  1  1  0  0  0  0
  4  5  1  0  0  0  0
  4  3  2  0  0  0  0
  5  6  1  0  0  0  0
  6  1  1  0  0  0  0
  7  9  2  0  0  0  0
  7  4  1  0  0  0  0
  8  7  1  0  0  0  0
  9 10  1  0  0  0  0
 10 13  1  0  0  0  0
 10 11  2  0  0  0  0
 11 12  1  0  0  0  0
 12 29  1  0  0  0  0
 13 30  1  0  0  0  0
 13 14  1  0  0  0  0
 14 15  2  0  0  0  0
 15 16  1  0  0  0  0
 15 21  1  0  0  0  0
 16 33  1  0  0  0  0
 16 34  1  0  0  0  0
 17 35  1  0  0  0  0
 17 16  1  0  0  0  0
 18 19  2  0  0  0  0
 18 17  1  0  0  0  0
 20 18  1  0  0  0  0
 21 39  1  0  0  0  0
 21 40  1  0  0  0  0
 22  9  1  0  0  0  0
 23 22  1  0  0  0  0
 23 43  1  0  0  0  0
 24  5  1  0  0  0  0
 25  5  1  0  0  0  0
 26  8  1  0  0  0  0
 27  8  1  0  0  0  0
 28  8  1  0  0  0  0
 31 13  1  0  0  0  0
 32 14  1  0  0  0  0
 36 17  1  0  0  0  0
 37 20  1  0  0  0  0
 38 21  1  0  0  0  0
 41 23  1  0  0  0  0
 42 23  1  0  0  0  0
M  END
