27.045
 OpenBabel10231816213D

 43 44  0  0  0  0  0  0  0  0999 V2000
   -3.6939    2.3174    1.0554 C   0  0  0  0  0  0  0  0  0  0  0  0
   -3.8152    2.5689    2.2424 O   0  0  0  0  0  0  0  0  0  0  0  0
   -2.8324    1.2911    0.4891 C   0  0  0  0  0  0  0  0  0  0  0  0
   -2.9563    1.3120   -0.8897 C   0  0  0  0  0  0  0  0  0  0  0  0
   -3.9284    2.3741   -1.2463 C   0  0  0  0  0  0  0  0  0  0  0  0
   -4.3255    2.9320    0.0252 O   0  0  0  0  0  0  0  0  0  0  0  0
   -2.2056    0.4248   -1.6562 C   0  0  0  0  0  0  0  0  0  0  0  0
   -2.2301    0.4364   -3.1619 C   0  0  0  0  0  0  0  0  0  0  0  0
   -1.3839   -0.4981   -0.9534 C   0  0  0  0  0  0  0  0  0  0  0  0
   -1.2287   -0.4853    0.4558 C   0  0  0  0  0  0  0  0  0  0  0  0
   -1.9876    0.4330    1.1809 C   0  0  0  0  0  0  0  0  0  0  0  0
   -1.8897    0.4906    2.5414 O   0  0  0  0  0  0  0  0  0  0  0  0
   -0.2273   -1.3940    1.1344 C   0  0  0  0  0  0  0  0  0  0  0  0
    1.1354   -0.7718    1.2598 C   0  0  0  0  0  0  0  0  0  0  0  0
    2.2477   -1.1190    0.5747 C   0  0  0  0  0  0  0  0  0  0  0  0
    3.5858   -0.4317    0.7739 C   0  0  0  0  0  0  0  0  0  0  0  0
    3.6325    0.7390    1.7630 C   0  0  0  0  0  0  0  0  0  0  0  0
    5.0119    1.3008    1.8784 C   0  0  0  0  0  0  0  0  0  0  0  0
    6.0222    0.9144    1.2901 O   0  0  0  0  0  0  0  0  0  0  0  0
    5.0667    2.3378    2.7399 O   0  0  0  0  0  0  0  0  0  0  0  0
    2.2882   -2.1957   -0.4845 C   0  0  0  0  0  0  0  0  0  0  0  0
   -0.6284   -1.3941   -1.6673 O   0  0  0  0  0  0  0  0  0  0  0  0
   -1.3792   -2.5683   -1.9812 C   0  0  0  0  0  0  0  0  0  0  0  0
   -4.8339    1.9975   -1.7248 H   0  0  0  0  0  0  0  0  0  0  0  0
   -3.4975    3.1870   -1.8318 H   0  0  0  0  0  0  0  0  0  0  0  0
   -3.2139    0.1532   -3.5456 H   0  0  0  0  0  0  0  0  0  0  0  0
   -1.9872    1.4303   -3.5463 H   0  0  0  0  0  0  0  0  0  0  0  0
   -1.4911   -0.2605   -3.5802 H   0  0  0  0  0  0  0  0  0  0  0  0
   -2.5021    1.1927    2.8528 H   0  0  0  0  0  0  0  0  0  0  0  0
   -0.5886   -1.6477    2.1382 H   0  0  0  0  0  0  0  0  0  0  0  0
   -0.1694   -2.3468    0.6012 H   0  0  0  0  0  0  0  0  0  0  0  0
    1.1837    0.0448    1.9774 H   0  0  0  0  0  0  0  0  0  0  0  0
    3.9359   -0.0871   -0.2085 H   0  0  0  0  0  0  0  0  0  0  0  0
    4.3070   -1.1965    1.0933 H   0  0  0  0  0  0  0  0  0  0  0  0
    3.3202    0.4128    2.7615 H   0  0  0  0  0  0  0  0  0  0  0  0
    2.9674    1.5470    1.4382 H   0  0  0  0  0  0  0  0  0  0  0  0
    6.0002    2.6330    2.7475 H   0  0  0  0  0  0  0  0  0  0  0  0
    2.2534   -1.7436   -1.4808 H   0  0  0  0  0  0  0  0  0  0  0  0
    1.4743   -2.9210   -0.4143 H   0  0  0  0  0  0  0  0  0  0  0  0
    3.2251   -2.7574   -0.4119 H   0  0  0  0  0  0  0  0  0  0  0  0
   -2.2731   -2.3387   -2.5707 H   0  0  0  0  0  0  0  0  0  0  0  0
   -0.7119   -3.1970   -2.5779 H   0  0  0  0  0  0  0  0  0  0  0  0
   -1.6769   -3.1162   -1.0810 H   0  0  0  0  0  0  0  0  0  0  0  0
  1  2  2  0  0  0  0
  3  1  1  0  0  0  0
  3 11  1  0  0  0  0
  4  3  2  0  0  0  0
  5  4  1  0  0  0  0
  5  6  1  0  0  0  0
  6  1  1  0  0  0  0
  7  9  2  0  0  0  0
  7  4  1  0  0  0  0
  8  7  1  0  0  0  0
  9 10  1  0  0  0  0
 10 13  1  0  0  0  0
 10 11  2  0  0  0  0
 11 12  1  0  0  0  0
 12 29  1  0  0  0  0
 13 14  1  0  0  0  0
 13 30  1  0  0  0  0
 14 32  1  0  0  0  0
 15 16  1  0  0  0  0
 15 14  2  0  0  0  0
 16 34  1  0  0  0  0
 16 17  1  0  0  0  0
 17 18  1  0  0  0  0
 17 35  1  0  0  0  0
 18 20  1  0  0  0  0
 19 18  2  0  0  0  0
 20 37  1  0  0  0  0
 21 39  1  0  0  0  0
 21 40  1  0  0  0  0
 21 15  1  0  0  0  0
 22  9  1  0  0  0  0
 23 22  1  0  0  0  0
 23 43  1  0  0  0  0
 24  5  1  0  0  0  0
 25  5  1  0  0  0  0
 26  8  1  0  0  0  0
 27  8  1  0  0  0  0
 28  8  1  0  0  0  0
 31 13  1  0  0  0  0
 33 16  1  0  0  0  0
 36 17  1  0  0  0  0
 38 21  1  0  0  0  0
 41 23  1  0  0  0  0
 42 23  1  0  0  0  0
M  END
