23.7828
 OpenBabel10231816213D

 22 21  0  0  1  0  0  0  0  0999 V2000
    2.4529    0.9888   -1.4468 O   0  0  0  0  0  0  0  0  0  0  0  0
    2.0690    0.0100   -0.8158 C   0  0  0  0  0  0  0  0  0  0  0  0
    2.4625   -1.2342   -1.1427 O   0  0  0  0  0  0  0  0  0  0  0  0
    1.1094    0.0709    0.3533 C   0  0  2  0  0  0  0  0  0  0  0  0
    1.3117   -1.1476    1.0867 O   0  0  0  0  0  0  0  0  0  0  0  0
   -0.3632    0.2505   -0.0919 C   0  0  0  0  0  0  0  0  0  0  0  0
   -0.8274   -0.9403   -0.9497 C   0  0  0  0  0  0  0  0  0  0  0  0
   -0.5027    1.5514   -0.8906 C   0  0  0  0  0  0  0  0  0  0  0  0
   -1.2647    0.3790    1.1530 C   0  0  0  0  0  0  0  0  0  0  0  0
   -1.1848   -0.8082    1.9396 O   0  0  0  0  0  0  0  0  0  0  0  0
    2.1102   -1.8209   -0.4361 H   0  0  0  0  0  0  0  0  0  0  0  0
    1.4052    0.9139    0.9925 H   0  0  0  0  0  0  0  0  0  0  0  0
    0.4977   -1.2871    1.6193 H   0  0  0  0  0  0  0  0  0  0  0  0
   -0.6610   -1.8945   -0.4387 H   0  0  0  0  0  0  0  0  0  0  0  0
   -1.8948   -0.8657   -1.1844 H   0  0  0  0  0  0  0  0  0  0  0  0
   -0.2829   -0.9749   -1.8998 H   0  0  0  0  0  0  0  0  0  0  0  0
    0.0260    1.4896   -1.8457 H   0  0  0  0  0  0  0  0  0  0  0  0
   -0.0872    2.3948   -0.3258 H   0  0  0  0  0  0  0  0  0  0  0  0
   -1.5524    1.7690   -1.1076 H   0  0  0  0  0  0  0  0  0  0  0  0
   -0.9397    1.2295    1.7646 H   0  0  0  0  0  0  0  0  0  0  0  0
   -2.3064    0.5472    0.8543 H   0  0  0  0  0  0  0  0  0  0  0  0
   -1.5775   -0.6215    2.8123 H   0  0  0  0  0  0  0  0  0  0  0  0
  1  2  2  0  0  0  0
  2  4  1  0  0  0  0
  3  2  1  0  0  0  0
  3 11  1  0  0  0  0
  4 12  1  1  0  0  0
  4  5  1  0  0  0  0
  5 13  1  0  0  0  0
  6  4  1  0  0  0  0
  6  9  1  0  0  0  0
  7 14  1  0  0  0  0
  7  6  1  0  0  0  0
  8 18  1  0  0  0  0
  8  6  1  0  0  0  0
  9 20  1  0  0  0  0
  9 10  1  0  0  0  0
 10 22  1  0  0  0  0
 15  7  1  0  0  0  0
 16  7  1  0  0  0  0
 17  8  1  0  0  0  0
 19  8  1  0  0  0  0
 21  9  1  0  0  0  0
M  END
