47.6784
 OpenBabel10231816213D

 43 44  0  0  0  0  0  0  0  0999 V2000
   -3.1335    2.3728    1.0903 C   0  0  0  0  0  0  0  0  0  0  0  0
   -2.7758    2.7532    2.1891 O   0  0  0  0  0  0  0  0  0  0  0  0
   -2.4876    1.3970    0.2079 C   0  0  0  0  0  0  0  0  0  0  0  0
   -3.2332    1.2866   -0.9501 C   0  0  0  0  0  0  0  0  0  0  0  0
   -4.4011    2.1878   -0.8545 C   0  0  0  0  0  0  0  0  0  0  0  0
   -4.2517    2.8070    0.4337 O   0  0  0  0  0  0  0  0  0  0  0  0
   -2.8445    0.4345   -1.9771 C   0  0  0  0  0  0  0  0  0  0  0  0
   -3.6567    0.3495   -3.2381 C   0  0  0  0  0  0  0  0  0  0  0  0
   -1.6784   -0.3331   -1.7753 C   0  0  0  0  0  0  0  0  0  0  0  0
   -0.8724   -0.2036   -0.6081 C   0  0  0  0  0  0  0  0  0  0  0  0
   -1.3193    0.6715    0.4036 C   0  0  0  0  0  0  0  0  0  0  0  0
   -0.6723    0.8492    1.5892 O   0  0  0  0  0  0  0  0  0  0  0  0
    0.3868   -1.0476   -0.4753 C   0  0  0  0  0  0  0  0  0  0  0  0
    1.6100   -0.2459   -0.1041 C   0  0  0  0  0  0  0  0  0  0  0  0
    2.3918   -0.3985    0.9855 C   0  0  0  0  0  0  0  0  0  0  0  0
    3.4592    0.6372    1.2978 C   0  0  0  0  0  0  0  0  0  0  0  0
    4.8671    0.0911    1.5180 C   0  0  0  0  0  0  0  0  0  0  0  0
    5.0672   -0.5297    2.8780 C   0  0  0  0  0  0  0  0  0  0  0  0
    5.3200   -1.7118    3.0555 O   0  0  0  0  0  0  0  0  0  0  0  0
    4.9620    0.3419    3.9046 O   0  0  0  0  0  0  0  0  0  0  0  0
    2.2228   -1.4979    2.0044 C   0  0  0  0  0  0  0  0  0  0  0  0
   -1.2617   -1.1710   -2.7830 O   0  0  0  0  0  0  0  0  0  0  0  0
   -1.8531   -2.4668   -2.6441 C   0  0  0  0  0  0  0  0  0  0  0  0
   -4.3882    2.9686   -1.6202 H   0  0  0  0  0  0  0  0  0  0  0  0
   -5.3486    1.6419   -0.8713 H   0  0  0  0  0  0  0  0  0  0  0  0
   -3.7949    1.3478   -3.6670 H   0  0  0  0  0  0  0  0  0  0  0  0
   -3.1753   -0.2606   -4.0069 H   0  0  0  0  0  0  0  0  0  0  0  0
   -4.6357   -0.0907   -3.0246 H   0  0  0  0  0  0  0  0  0  0  0  0
    0.1696    0.3743    1.6008 H   0  0  0  0  0  0  0  0  0  0  0  0
    0.6304   -1.5537   -1.4160 H   0  0  0  0  0  0  0  0  0  0  0  0
    0.1614   -1.8446    0.2378 H   0  0  0  0  0  0  0  0  0  0  0  0
    1.8191    0.5714   -0.7946 H   0  0  0  0  0  0  0  0  0  0  0  0
    3.5123    1.3679    0.4796 H   0  0  0  0  0  0  0  0  0  0  0  0
    3.1239    1.2048    2.1767 H   0  0  0  0  0  0  0  0  0  0  0  0
    5.1130   -0.6547    0.7526 H   0  0  0  0  0  0  0  0  0  0  0  0
    5.6040    0.8972    1.4194 H   0  0  0  0  0  0  0  0  0  0  0  0
    4.7915    1.2657    3.6431 H   0  0  0  0  0  0  0  0  0  0  0  0
    2.2119   -1.0803    3.0167 H   0  0  0  0  0  0  0  0  0  0  0  0
    1.2999   -2.0683    1.8944 H   0  0  0  0  0  0  0  0  0  0  0  0
    3.0465   -2.2125    1.9196 H   0  0  0  0  0  0  0  0  0  0  0  0
   -2.9466   -2.4169   -2.6574 H   0  0  0  0  0  0  0  0  0  0  0  0
   -1.5315   -3.0683   -3.4994 H   0  0  0  0  0  0  0  0  0  0  0  0
   -1.5082   -2.9625   -1.7308 H   0  0  0  0  0  0  0  0  0  0  0  0
  1  2  2  0  0  0  0
  3 11  1  0  0  0  0
  3  1  1  0  0  0  0
  4  5  1  0  0  0  0
  4  3  2  0  0  0  0
  5  6  1  0  0  0  0
  6  1  1  0  0  0  0
  7  9  2  0  0  0  0
  7  4  1  0  0  0  0
  8 28  1  0  0  0  0
  8  7  1  0  0  0  0
  9 10  1  0  0  0  0
 10 13  1  0  0  0  0
 10 11  2  0  0  0  0
 11 12  1  0  0  0  0
 12 29  1  0  0  0  0
 13 14  1  0  0  0  0
 13 31  1  0  0  0  0
 14 15  2  0  0  0  0
 15 16  1  0  0  0  0
 15 21  1  0  0  0  0
 16 17  1  0  0  0  0
 16 34  1  0  0  0  0
 17 18  1  0  0  0  0
 18 19  2  0  0  0  0
 18 20  1  0  0  0  0
 21 38  1  0  0  0  0
 22 23  1  0  0  0  0
 22  9  1  0  0  0  0
 23 43  1  0  0  0  0
 24  5  1  0  0  0  0
 25  5  1  0  0  0  0
 26  8  1  0  0  0  0
 27  8  1  0  0  0  0
 30 13  1  0  0  0  0
 32 14  1  0  0  0  0
 33 16  1  0  0  0  0
 35 17  1  0  0  0  0
 36 17  1  0  0  0  0
 37 20  1  0  0  0  0
 39 21  1  0  0  0  0
 40 21  1  0  0  0  0
 41 23  1  0  0  0  0
 42 23  1  0  0  0  0
M  END
