37.1914
 OpenBabel10231816213D

 43 44  0  0  0  0  0  0  0  0999 V2000
   -3.6130    1.8994    1.3603 C   0  0  0  0  0  0  0  0  0  0  0  0
   -3.5358    1.9626    2.5758 O   0  0  0  0  0  0  0  0  0  0  0  0
   -2.7378    1.1280    0.4923 C   0  0  0  0  0  0  0  0  0  0  0  0
   -3.1313    1.3124   -0.8219 C   0  0  0  0  0  0  0  0  0  0  0  0
   -4.3000    2.2251   -0.8261 C   0  0  0  0  0  0  0  0  0  0  0  0
   -4.5180    2.5265    0.5687 O   0  0  0  0  0  0  0  0  0  0  0  0
   -2.4276    0.6813   -1.8452 C   0  0  0  0  0  0  0  0  0  0  0  0
   -2.7689    0.8882   -3.2976 C   0  0  0  0  0  0  0  0  0  0  0  0
   -1.3534   -0.1669   -1.4602 C   0  0  0  0  0  0  0  0  0  0  0  0
   -0.9297   -0.3173   -0.1141 C   0  0  0  0  0  0  0  0  0  0  0  0
   -1.6598    0.3427    0.8754 C   0  0  0  0  0  0  0  0  0  0  0  0
   -1.3049    0.2172    2.1870 O   0  0  0  0  0  0  0  0  0  0  0  0
    0.2968   -1.1231    0.2377 C   0  0  0  0  0  0  0  0  0  0  0  0
    1.5267   -0.2817    0.4237 C   0  0  0  0  0  0  0  0  0  0  0  0
    2.2462   -0.1256    1.5528 C   0  0  0  0  0  0  0  0  0  0  0  0
    3.5624    0.6316    1.4957 C   0  0  0  0  0  0  0  0  0  0  0  0
    4.5936    0.0307    0.5289 C   0  0  0  0  0  0  0  0  0  0  0  0
    5.1726   -1.2834    0.9818 C   0  0  0  0  0  0  0  0  0  0  0  0
    6.3887   -1.5030    1.0218 O   0  0  0  0  0  0  0  0  0  0  0  0
    4.2998   -2.2477    1.2902 O   0  0  0  0  0  0  0  0  0  0  0  0
    1.8541   -0.6703    2.9070 C   0  0  0  0  0  0  0  0  0  0  0  0
   -0.6207   -0.8005   -2.4349 O   0  0  0  0  0  0  0  0  0  0  0  0
   -1.2169   -2.0479   -2.8071 C   0  0  0  0  0  0  0  0  0  0  0  0
   -4.1166    3.1726   -1.3336 H   0  0  0  0  0  0  0  0  0  0  0  0
   -5.2152    1.7631   -1.1991 H   0  0  0  0  0  0  0  0  0  0  0  0
   -3.7628    0.4961   -3.5302 H   0  0  0  0  0  0  0  0  0  0  0  0
   -2.7544    1.9510   -3.5524 H   0  0  0  0  0  0  0  0  0  0  0  0
   -2.0464    0.3880   -3.9563 H   0  0  0  0  0  0  0  0  0  0  0  0
   -1.9305    0.7563    2.7171 H   0  0  0  0  0  0  0  0  0  0  0  0
    0.1020   -1.7260    1.1288 H   0  0  0  0  0  0  0  0  0  0  0  0
    0.5030   -1.8495   -0.5604 H   0  0  0  0  0  0  0  0  0  0  0  0
    1.8553    0.2660   -0.4606 H   0  0  0  0  0  0  0  0  0  0  0  0
    3.9918    0.6895    2.5010 H   0  0  0  0  0  0  0  0  0  0  0  0
    3.3420    1.6596    1.1814 H   0  0  0  0  0  0  0  0  0  0  0  0
    4.1733   -0.0906   -0.4755 H   0  0  0  0  0  0  0  0  0  0  0  0
    5.4355    0.7363    0.4248 H   0  0  0  0  0  0  0  0  0  0  0  0
    3.3777   -1.9568    1.1762 H   0  0  0  0  0  0  0  0  0  0  0  0
    1.0545   -1.4142    2.8694 H   0  0  0  0  0  0  0  0  0  0  0  0
    2.7088   -1.1405    3.4027 H   0  0  0  0  0  0  0  0  0  0  0  0
    1.5129    0.1502    3.5429 H   0  0  0  0  0  0  0  0  0  0  0  0
   -1.2068   -2.7659   -1.9803 H   0  0  0  0  0  0  0  0  0  0  0  0
   -0.6026   -2.4387   -3.6248 H   0  0  0  0  0  0  0  0  0  0  0  0
   -2.2447   -1.9245   -3.1635 H   0  0  0  0  0  0  0  0  0  0  0  0
  1  2  2  0  0  0  0
  3 11  1  0  0  0  0
  3  1  1  0  0  0  0
  4  3  2  0  0  0  0
  5  4  1  0  0  0  0
  5  6  1  0  0  0  0
  6  1  1  0  0  0  0
  7  9  2  0  0  0  0
  7  4  1  0  0  0  0
  8  7  1  0  0  0  0
  9 10  1  0  0  0  0
 10 13  1  0  0  0  0
 10 11  2  0  0  0  0
 11 12  1  0  0  0  0
 12 29  1  0  0  0  0
 13 14  1  0  0  0  0
 13 30  1  0  0  0  0
 14 15  2  0  0  0  0
 15 21  1  0  0  0  0
 16 15  1  0  0  0  0
 16 33  1  0  0  0  0
 17 18  1  0  0  0  0
 17 16  1  0  0  0  0
 18 19  2  0  0  0  0
 18 20  1  0  0  0  0
 21 39  1  0  0  0  0
 21 40  1  0  0  0  0
 22  9  1  0  0  0  0
 23 22  1  0  0  0  0
 23 41  1  0  0  0  0
 24  5  1  0  0  0  0
 25  5  1  0  0  0  0
 26  8  1  0  0  0  0
 27  8  1  0  0  0  0
 28  8  1  0  0  0  0
 31 13  1  0  0  0  0
 32 14  1  0  0  0  0
 34 16  1  0  0  0  0
 35 17  1  0  0  0  0
 36 17  1  0  0  0  0
 37 20  1  0  0  0  0
 38 21  1  0  0  0  0
 42 23  1  0  0  0  0
 43 23  1  0  0  0  0
M  END
