49.1768
 OpenBabel10231816213D

 43 44  0  0  1  0  0  0  0  0999 V2000
   -0.9989    3.1072   -0.1545 C   0  0  0  0  0  0  0  0  0  0  0  0
   -0.0993    3.8801    0.1672 O   0  0  0  0  0  0  0  0  0  0  0  0
   -0.8798    1.7060   -0.5637 C   0  0  0  0  0  0  0  0  0  0  0  0
   -2.1560    1.2014   -0.7509 C   0  0  0  0  0  0  0  0  0  0  0  0
   -3.1329    2.2866   -0.5256 C   0  0  0  0  0  0  0  0  0  0  0  0
   -2.3191    3.4196   -0.1756 O   0  0  0  0  0  0  0  0  0  0  0  0
   -2.3502   -0.1354   -1.0892 C   0  0  0  0  0  0  0  0  0  0  0  0
   -3.7283   -0.7133   -1.2705 C   0  0  0  0  0  0  0  0  0  0  0  0
   -1.1920   -0.9292   -1.2670 C   0  0  0  0  0  0  0  0  0  0  0  0
    0.1266   -0.4298   -1.0732 C   0  0  0  0  0  0  0  0  0  0  0  0
    0.2632    0.9284   -0.7377 C   0  0  0  0  0  0  0  0  0  0  0  0
    1.4818    1.5085   -0.5348 O   0  0  0  0  0  0  0  0  0  0  0  0
    1.3105   -1.3785   -1.1963 C   0  0  0  0  0  0  0  0  0  0  0  0
    2.3773   -1.2194   -0.1579 C   0  0  0  0  0  0  0  0  0  0  0  0
    2.0945   -1.1073    1.2416 C   0  0  1  0  0  0  0  0  0  0  0  0
    3.1528   -0.5453    2.1480 C   0  0  0  0  0  0  0  0  0  0  0  0
    3.0447    0.9671    2.3425 C   0  0  0  0  0  0  0  0  0  0  0  0
    1.7585    1.3432    3.0077 C   0  0  0  0  0  0  0  0  0  0  0  0
    1.4732    0.9341    4.1291 O   0  0  0  0  0  0  0  0  0  0  0  0
    0.9041    2.0934    2.3211 O   0  0  0  0  0  0  0  0  0  0  0  0
    0.7268   -1.3869    1.7749 C   0  0  0  0  0  0  0  0  0  0  0  0
   -1.3548   -2.2666   -1.5416 O   0  0  0  0  0  0  0  0  0  0  0  0
   -1.3917   -2.4973   -2.9507 C   0  0  0  0  0  0  0  0  0  0  0  0
   -3.8093    2.0950    0.3060 H   0  0  0  0  0  0  0  0  0  0  0  0
   -3.6938    2.5537   -1.4216 H   0  0  0  0  0  0  0  0  0  0  0  0
   -4.3498   -0.5268   -0.3915 H   0  0  0  0  0  0  0  0  0  0  0  0
   -3.6910   -1.7993   -1.4170 H   0  0  0  0  0  0  0  0  0  0  0  0
   -4.2268   -0.2759   -2.1404 H   0  0  0  0  0  0  0  0  0  0  0  0
    2.1753    0.8717   -0.7771 H   0  0  0  0  0  0  0  0  0  0  0  0
    1.7885   -1.2488   -2.1703 H   0  0  0  0  0  0  0  0  0  0  0  0
    0.9703   -2.4173   -1.1561 H   0  0  0  0  0  0  0  0  0  0  0  0
    3.4177   -1.1416   -0.4641 H   0  0  0  0  0  0  0  0  0  0  0  0
    3.0520   -1.0445    3.1177 H   0  0  0  0  0  0  0  0  0  0  0  0
    4.1471   -0.8079    1.7597 H   0  0  0  0  0  0  0  0  0  0  0  0
    3.8688    1.3008    2.9950 H   0  0  0  0  0  0  0  0  0  0  0  0
    3.1629    1.5045    1.3968 H   0  0  0  0  0  0  0  0  0  0  0  0
    1.1753    2.2943    1.3933 H   0  0  0  0  0  0  0  0  0  0  0  0
    0.1959   -2.1376    1.1833 H   0  0  0  0  0  0  0  0  0  0  0  0
    0.7988   -1.7531    2.7962 H   0  0  0  0  0  0  0  0  0  0  0  0
    0.1200   -0.4806    1.7842 H   0  0  0  0  0  0  0  0  0  0  0  0
   -0.4427   -2.2324   -3.4284 H   0  0  0  0  0  0  0  0  0  0  0  0
   -1.5618   -3.5701   -3.0740 H   0  0  0  0  0  0  0  0  0  0  0  0
   -2.2083   -1.9507   -3.4343 H   0  0  0  0  0  0  0  0  0  0  0  0
  1  2  2  0  0  0  0
  3  1  1  0  0  0  0
  4  3  2  0  0  0  0
  4  5  1  0  0  0  0
  5  6  1  0  0  0  0
  5 24  1  0  0  0  0
  6  1  1  0  0  0  0
  7  4  1  0  0  0  0
  8  7  1  0  0  0  0
  8 26  1  0  0  0  0
  9  7  2  0  0  0  0
  9 10  1  0  0  0  0
 10 11  2  0  0  0  0
 11  3  1  0  0  0  0
 11 12  1  0  0  0  0
 13 31  1  0  0  0  0
 13 10  1  0  0  0  0
 13 14  1  0  0  0  0
 15 14  1  6  0  0  0
 15 21  1  0  0  0  0
 15 16  1  0  0  0  0
 16 17  1  0  0  0  0
 16 33  1  0  0  0  0
 17 35  1  0  0  0  0
 17 18  1  0  0  0  0
 18 19  2  0  0  0  0
 20 18  1  0  0  0  0
 21 40  1  0  0  0  0
 21 39  1  0  0  0  0
 22  9  1  0  0  0  0
 23 22  1  0  0  0  0
 25  5  1  0  0  0  0
 27  8  1  0  0  0  0
 28  8  1  0  0  0  0
 29 12  1  0  0  0  0
 30 13  1  0  0  0  0
 32 14  1  0  0  0  0
 34 16  1  0  0  0  0
 36 17  1  0  0  0  0
 37 20  1  0  0  0  0
 38 21  1  0  0  0  0
 41 23  1  0  0  0  0
 42 23  1  0  0  0  0
 43 23  1  0  0  0  0
M  RAD  2  14   2  15   2
M  END
