27.9125
 OpenBabel10231816213D

 22 21  0  0  1  0  0  0  0  0999 V2000
    2.1030    1.5860    0.7073 O   0  0  0  0  0  0  0  0  0  0  0  0
    2.1271    0.5680    0.0308 C   0  0  0  0  0  0  0  0  0  0  0  0
    3.1368    0.2907   -0.8312 O   0  0  0  0  0  0  0  0  0  0  0  0
    1.0715   -0.5542    0.0582 C   0  0  2  0  0  0  0  0  0  0  0  0
    1.3417   -1.4066   -1.0708 O   0  0  0  0  0  0  0  0  0  0  0  0
   -0.4001   -0.0514    0.0760 C   0  0  0  0  0  0  0  0  0  0  0  0
   -1.3739   -1.2269   -0.1699 C   0  0  0  0  0  0  0  0  0  0  0  0
   -0.6397    0.9920   -1.0314 C   0  0  0  0  0  0  0  0  0  0  0  0
   -0.7050    0.5442    1.4738 C   0  0  0  0  0  0  0  0  0  0  0  0
   -2.0414    1.0245    1.5709 O   0  0  0  0  0  0  0  0  0  0  0  0
    2.8963   -0.5450   -1.3009 H   0  0  0  0  0  0  0  0  0  0  0  0
    1.2806   -1.1530    0.9558 H   0  0  0  0  0  0  0  0  0  0  0  0
    0.9146   -2.2661   -0.8869 H   0  0  0  0  0  0  0  0  0  0  0  0
   -2.4159   -0.9244   -0.0247 H   0  0  0  0  0  0  0  0  0  0  0  0
   -1.2914   -1.6208   -1.1905 H   0  0  0  0  0  0  0  0  0  0  0  0
   -1.1725   -2.0479    0.5251 H   0  0  0  0  0  0  0  0  0  0  0  0
   -0.0928    1.9207   -0.8426 H   0  0  0  0  0  0  0  0  0  0  0  0
   -1.7040    1.2552   -1.1141 H   0  0  0  0  0  0  0  0  0  0  0  0
   -0.3244    0.6089   -2.0083 H   0  0  0  0  0  0  0  0  0  0  0  0
   -0.5885   -0.2304    2.2407 H   0  0  0  0  0  0  0  0  0  0  0  0
   -0.0379    1.3670    1.7431 H   0  0  0  0  0  0  0  0  0  0  0  0
   -2.0841    1.8695    1.0894 H   0  0  0  0  0  0  0  0  0  0  0  0
  2  4  1  0  0  0  0
  2  1  2  0  0  0  0
  3  2  1  0  0  0  0
  4  6  1  0  0  0  0
  4 12  1  1  0  0  0
  5 13  1  0  0  0  0
  5  4  1  0  0  0  0
  6  9  1  0  0  0  0
  7 14  1  0  0  0  0
  7  6  1  0  0  0  0
  7 16  1  0  0  0  0
  8 17  1  0  0  0  0
  8  6  1  0  0  0  0
  9 10  1  0  0  0  0
  9 21  1  0  0  0  0
  9 20  1  0  0  0  0
 11  3  1  0  0  0  0
 15  7  1  0  0  0  0
 18  8  1  0  0  0  0
 19  8  1  0  0  0  0
 22 10  1  0  0  0  0
M  END
