33.2747
 OpenBabel10231816213D

 22 21  0  0  1  0  0  0  0  0999 V2000
    2.7210   -0.1666    1.2585 O   0  0  0  0  0  0  0  0  0  0  0  0
    2.0120   -0.7270    0.4193 C   0  0  0  0  0  0  0  0  0  0  0  0
    1.9875   -2.0533    0.2958 O   0  0  0  0  0  0  0  0  0  0  0  0
    1.1453    0.0761   -0.5425 C   0  0  2  0  0  0  0  0  0  0  0  0
    1.6394    1.4328   -0.5252 O   0  0  0  0  0  0  0  0  0  0  0  0
   -0.3484    0.0785   -0.2112 C   0  0  0  0  0  0  0  0  0  0  0  0
   -0.9106   -1.3481   -0.1356 C   0  0  0  0  0  0  0  0  0  0  0  0
   -1.0876    0.8376   -1.3345 C   0  0  0  0  0  0  0  0  0  0  0  0
   -0.5993    0.8157    1.1095 C   0  0  0  0  0  0  0  0  0  0  0  0
   -1.9849    0.7342    1.4263 O   0  0  0  0  0  0  0  0  0  0  0  0
    1.3674   -2.3525   -0.4004 H   0  0  0  0  0  0  0  0  0  0  0  0
    1.3067   -0.2963   -1.5596 H   0  0  0  0  0  0  0  0  0  0  0  0
    2.2413    1.4854    0.2524 H   0  0  0  0  0  0  0  0  0  0  0  0
   -0.6688   -1.9178   -1.0410 H   0  0  0  0  0  0  0  0  0  0  0  0
   -2.0003   -1.3404   -0.0319 H   0  0  0  0  0  0  0  0  0  0  0  0
   -0.5128   -1.8908    0.7313 H   0  0  0  0  0  0  0  0  0  0  0  0
   -1.0219    0.3001   -2.2883 H   0  0  0  0  0  0  0  0  0  0  0  0
   -2.1502    0.9771   -1.1005 H   0  0  0  0  0  0  0  0  0  0  0  0
   -0.6489    1.8327   -1.4814 H   0  0  0  0  0  0  0  0  0  0  0  0
   -0.3127    1.8684    1.0178 H   0  0  0  0  0  0  0  0  0  0  0  0
   -0.0219    0.3750    1.9284 H   0  0  0  0  0  0  0  0  0  0  0  0
   -2.1524    1.2791    2.2130 H   0  0  0  0  0  0  0  0  0  0  0  0
  2  1  2  0  0  0  0
  3  2  1  0  0  0  0
  4 12  1  6  0  0  0
  4  5  1  0  0  0  0
  4  6  1  0  0  0  0
  4  2  1  0  0  0  0
  5 13  1  0  0  0  0
  6  7  1  0  0  0  0
  6  9  1  0  0  0  0
  7 15  1  0  0  0  0
  7 16  1  0  0  0  0
  8 18  1  0  0  0  0
  8  6  1  0  0  0  0
  9 10  1  0  0  0  0
  9 21  1  0  0  0  0
 10 22  1  0  0  0  0
 11  3  1  0  0  0  0
 14  7  1  0  0  0  0
 17  8  1  0  0  0  0
 19  8  1  0  0  0  0
 20  9  1  0  0  0  0
M  END
