24.5399
 OpenBabel10231816213D

 22 21  0  0  1  0  0  0  0  0999 V2000
    1.9607    1.5064    0.2494 O   0  0  0  0  0  0  0  0  0  0  0  0
    1.9601    0.2986    0.0140 C   0  0  0  0  0  0  0  0  0  0  0  0
    3.1249   -0.3687   -0.1604 O   0  0  0  0  0  0  0  0  0  0  0  0
    0.7773   -0.6428   -0.1131 C   0  0  2  0  0  0  0  0  0  0  0  0
    0.9127   -1.3925   -1.3300 O   0  0  0  0  0  0  0  0  0  0  0  0
   -0.6064    0.0214   -0.1089 C   0  0  0  0  0  0  0  0  0  0  0  0
   -1.6674   -1.0988   -0.1339 C   0  0  0  0  0  0  0  0  0  0  0  0
   -0.7927    0.9100   -1.3410 C   0  0  0  0  0  0  0  0  0  0  0  0
   -0.8075    0.8447    1.1603 C   0  0  0  0  0  0  0  0  0  0  0  0
   -0.3870    0.0584    2.2708 O   0  0  0  0  0  0  0  0  0  0  0  0
    3.8345    0.3003   -0.0557 H   0  0  0  0  0  0  0  0  0  0  0  0
    0.8518   -1.3353    0.7361 H   0  0  0  0  0  0  0  0  0  0  0  0
    1.7881   -1.8167   -1.2844 H   0  0  0  0  0  0  0  0  0  0  0  0
   -1.5242   -1.7599   -0.9963 H   0  0  0  0  0  0  0  0  0  0  0  0
   -1.6152   -1.7162    0.7727 H   0  0  0  0  0  0  0  0  0  0  0  0
   -2.6789   -0.6824   -0.1949 H   0  0  0  0  0  0  0  0  0  0  0  0
   -0.0468    1.7120   -1.3703 H   0  0  0  0  0  0  0  0  0  0  0  0
   -1.7832    1.3760   -1.3394 H   0  0  0  0  0  0  0  0  0  0  0  0
   -0.6903    0.3264   -2.2624 H   0  0  0  0  0  0  0  0  0  0  0  0
   -0.2348    1.7756    1.1302 H   0  0  0  0  0  0  0  0  0  0  0  0
   -1.8642    1.1072    1.2753 H   0  0  0  0  0  0  0  0  0  0  0  0
   -0.5118    0.5763    3.0819 H   0  0  0  0  0  0  0  0  0  0  0  0
  2  1  2  0  0  0  0
  3 11  1  0  0  0  0
  3  2  1  0  0  0  0
  4  6  1  0  0  0  0
  4  2  1  0  0  0  0
  4 12  1  1  0  0  0
  5 13  1  0  0  0  0
  5  4  1  0  0  0  0
  6  9  1  0  0  0  0
  7  6  1  0  0  0  0
  7 15  1  0  0  0  0
  8 18  1  0  0  0  0
  8  6  1  0  0  0  0
  9 21  1  0  0  0  0
  9 10  1  0  0  0  0
 10 22  1  0  0  0  0
 14  7  1  0  0  0  0
 16  7  1  0  0  0  0
 17  8  1  0  0  0  0
 19  8  1  0  0  0  0
 20  9  1  0  0  0  0
M  END
