-22.2061
 OpenBabel10231816213D

 34 36  0  0  1  0  0  0  0  0999 V2000
    2.1248    2.4618   -0.3765 O   0  0  0  0  0  0  0  0  0  0  0  0
    3.0821    1.5506    0.1555 C   0  0  0  0  0  0  0  0  0  0  0  0
    2.5425    0.1281    0.2463 C   0  0  2  0  0  0  0  0  0  0  0  0
    2.1588   -0.4653   -1.1282 C   0  0  1  0  0  0  0  0  0  0  0  0
    3.2824   -0.9971   -1.8153 O   0  0  0  0  0  0  0  0  0  0  0  0
    1.0794   -1.5163   -0.8176 C   0  0  0  0  0  0  0  0  0  0  0  0
    0.3522   -0.9374    0.3853 C   0  0  2  0  0  0  0  0  0  0  0  0
   -1.0702   -0.6955    0.2565 N   0  0  0  0  0  0  0  0  0  0  0  0
   -1.9380   -1.7838    0.3392 C   0  0  0  0  0  0  0  0  0  0  0  0
   -1.5723   -2.9499    0.4890 O   0  0  0  0  0  0  0  0  0  0  0  0
   -3.2695   -1.4720    0.2461 N   0  0  0  0  0  0  0  0  0  0  0  0
   -3.8147   -0.2261    0.0361 C   0  0  0  0  0  0  0  0  0  0  0  0
   -5.0320   -0.0472   -0.0552 O   0  0  0  0  0  0  0  0  0  0  0  0
   -2.8384    0.8864   -0.0916 C   0  0  0  0  0  0  0  0  0  0  0  0
   -1.5341    0.5884    0.0251 C   0  0  0  0  0  0  0  0  0  0  0  0
   -3.3875    2.2582   -0.3491 C   0  0  0  0  0  0  0  0  0  0  0  0
    1.2787    0.0252    1.0693 C   0  0  1  0  0  0  0  0  0  0  0  0
    0.9262   -1.2605    1.7495 C   0  0  0  0  0  0  0  0  0  0  0  0
    2.1031    2.3447   -1.3418 H   0  0  0  0  0  0  0  0  0  0  0  0
    3.3383    1.9080    1.1571 H   0  0  0  0  0  0  0  0  0  0  0  0
    3.9874    1.5750   -0.4600 H   0  0  0  0  0  0  0  0  0  0  0  0
    3.3225   -0.4913    0.7073 H   0  0  0  0  0  0  0  0  0  0  0  0
    1.7221    0.2993   -1.7744 H   0  0  0  0  0  0  0  0  0  0  0  0
    3.6923   -1.6945   -1.2753 H   0  0  0  0  0  0  0  0  0  0  0  0
    1.5233   -2.4901   -0.5734 H   0  0  0  0  0  0  0  0  0  0  0  0
    0.4241   -1.6717   -1.6815 H   0  0  0  0  0  0  0  0  0  0  0  0
   -3.9146   -2.2362    0.3086 H   0  0  0  0  0  0  0  0  0  0  0  0
   -0.7770    1.3590   -0.0629 H   0  0  0  0  0  0  0  0  0  0  0  0
   -3.9546    2.2839   -1.2870 H   0  0  0  0  0  0  0  0  0  0  0  0
   -2.5964    3.0136   -0.4228 H   0  0  0  0  0  0  0  0  0  0  0  0
   -4.0646    2.5687    0.4548 H   0  0  0  0  0  0  0  0  0  0  0  0
    0.8883    0.9499    1.4729 H   0  0  0  0  0  0  0  0  0  0  0  0
    1.6805   -2.0364    1.8142 H   0  0  0  0  0  0  0  0  0  0  0  0
    0.2549   -1.2295    2.5996 H   0  0  0  0  0  0  0  0  0  0  0  0
  1  2  1  0  0  0  0
  2  3  1  0  0  0  0
  2 20  1  0  0  0  0
  3 22  1  1  0  0  0
  3 17  1  0  0  0  0
  4 23  1  6  0  0  0
  4  6  1  0  0  0  0
  4  3  1  0  0  0  0
  5 24  1  0  0  0  0
  5  4  1  0  0  0  0
  6 25  1  0  0  0  0
  6  7  1  0  0  0  0
  7  8  1  6  0  0  0
  7 17  1  0  0  0  0
  7 18  1  0  0  0  0
  8  9  1  0  0  0  0
  9 10  2  0  0  0  0
 11 27  1  0  0  0  0
 11  9  1  0  0  0  0
 12 11  1  0  0  0  0
 13 12  2  0  0  0  0
 14 15  2  0  0  0  0
 14 12  1  0  0  0  0
 15  8  1  0  0  0  0
 16 14  1  0  0  0  0
 16 31  1  0  0  0  0
 17 32  1  1  0  0  0
 17 18  1  0  0  0  0
 18 33  1  0  0  0  0
 18 34  1  0  0  0  0
 19  1  1  0  0  0  0
 21  2  1  0  0  0  0
 26  6  1  0  0  0  0
 28 15  1  0  0  0  0
 29 16  1  0  0  0  0
 30 16  1  0  0  0  0
M  END
