25.2095
 OpenBabel10231816213D

 22 21  0  0  1  0  0  0  0  0999 V2000
    2.1506    1.3536    0.3095 O   0  0  0  0  0  0  0  0  0  0  0  0
    1.9379    0.3404   -0.3482 C   0  0  0  0  0  0  0  0  0  0  0  0
    2.8447   -0.1181   -1.2449 O   0  0  0  0  0  0  0  0  0  0  0  0
    0.7346   -0.5889   -0.3116 C   0  0  2  0  0  0  0  0  0  0  0  0
    0.4104   -0.9024   -1.6794 O   0  0  0  0  0  0  0  0  0  0  0  0
   -0.5219   -0.0587    0.3993 C   0  0  0  0  0  0  0  0  0  0  0  0
   -1.6394   -1.1147    0.2889 C   0  0  0  0  0  0  0  0  0  0  0  0
   -0.2195    0.1754    1.8835 C   0  0  0  0  0  0  0  0  0  0  0  0
   -1.0256    1.2457   -0.2354 C   0  0  0  0  0  0  0  0  0  0  0  0
   -1.4561    1.0650   -1.5799 O   0  0  0  0  0  0  0  0  0  0  0  0
    3.5952    0.5139   -1.2211 H   0  0  0  0  0  0  0  0  0  0  0  0
    1.0667   -1.5057    0.1923 H   0  0  0  0  0  0  0  0  0  0  0  0
    1.2638   -1.1083   -2.1149 H   0  0  0  0  0  0  0  0  0  0  0  0
   -1.3069   -2.0898    0.6636 H   0  0  0  0  0  0  0  0  0  0  0  0
   -2.5176   -0.8123    0.8695 H   0  0  0  0  0  0  0  0  0  0  0  0
   -1.9628   -1.2425   -0.7508 H   0  0  0  0  0  0  0  0  0  0  0  0
   -1.1255    0.4771    2.4186 H   0  0  0  0  0  0  0  0  0  0  0  0
    0.5241    0.9658    2.0262 H   0  0  0  0  0  0  0  0  0  0  0  0
    0.1631   -0.7391    2.3512 H   0  0  0  0  0  0  0  0  0  0  0  0
   -0.2478    2.0135   -0.2188 H   0  0  0  0  0  0  0  0  0  0  0  0
   -1.8870    1.6257    0.3188 H   0  0  0  0  0  0  0  0  0  0  0  0
   -0.7809    0.5044   -2.0163 H   0  0  0  0  0  0  0  0  0  0  0  0
  2  4  1  0  0  0  0
  2  1  2  0  0  0  0
  3 11  1  0  0  0  0
  3  2  1  0  0  0  0
  4 12  1  1  0  0  0
  4  6  1  0  0  0  0
  5  4  1  0  0  0  0
  6  8  1  0  0  0  0
  7  6  1  0  0  0  0
  7 14  1  0  0  0  0
  7 15  1  0  0  0  0
  8 18  1  0  0  0  0
  8 19  1  0  0  0  0
  8 17  1  0  0  0  0
  9 20  1  0  0  0  0
  9 21  1  0  0  0  0
  9  6  1  0  0  0  0
 10  9  1  0  0  0  0
 13  5  1  0  0  0  0
 16  7  1  0  0  0  0
 22 10  1  0  0  0  0
M  END
