24.5346
 OpenBabel10231816213D

 22 21  0  0  1  0  0  0  0  0999 V2000
    1.6959    1.7649   -1.1046 O   0  0  0  0  0  0  0  0  0  0  0  0
    1.7824    0.5946   -0.7331 C   0  0  0  0  0  0  0  0  0  0  0  0
    2.8899    0.1353   -0.1197 O   0  0  0  0  0  0  0  0  0  0  0  0
    0.6985   -0.4563   -0.8458 C   0  0  2  0  0  0  0  0  0  0  0  0
    0.1041   -0.3717   -2.1424 O   0  0  0  0  0  0  0  0  0  0  0  0
   -0.3509   -0.3299    0.2808 C   0  0  0  0  0  0  0  0  0  0  0  0
   -1.4603   -1.3645    0.0177 C   0  0  0  0  0  0  0  0  0  0  0  0
    0.3015   -0.6352    1.6361 C   0  0  0  0  0  0  0  0  0  0  0  0
   -0.9704    1.0781    0.3485 C   0  0  0  0  0  0  0  0  0  0  0  0
   -1.5429    1.4161   -0.9092 O   0  0  0  0  0  0  0  0  0  0  0  0
    3.5206    0.8842   -0.0884 H   0  0  0  0  0  0  0  0  0  0  0  0
    1.1743   -1.4401   -0.7898 H   0  0  0  0  0  0  0  0  0  0  0  0
   -0.4373    0.4471   -2.1189 H   0  0  0  0  0  0  0  0  0  0  0  0
   -2.2639   -1.2830    0.7580 H   0  0  0  0  0  0  0  0  0  0  0  0
   -1.9044   -1.2301   -0.9756 H   0  0  0  0  0  0  0  0  0  0  0  0
   -1.0581   -2.3828    0.0663 H   0  0  0  0  0  0  0  0  0  0  0  0
    1.0143    0.1467    1.9236 H   0  0  0  0  0  0  0  0  0  0  0  0
    0.8422   -1.5875    1.5959 H   0  0  0  0  0  0  0  0  0  0  0  0
   -0.4533   -0.7035    2.4267 H   0  0  0  0  0  0  0  0  0  0  0  0
   -1.7481    1.1063    1.1206 H   0  0  0  0  0  0  0  0  0  0  0  0
   -0.2115    1.8251    0.6136 H   0  0  0  0  0  0  0  0  0  0  0  0
   -1.6226    2.3861   -0.9604 H   0  0  0  0  0  0  0  0  0  0  0  0
  1  2  2  0  0  0  0
  2  3  1  0  0  0  0
  3 11  1  0  0  0  0
  4 12  1  1  0  0  0
  4  2  1  0  0  0  0
  4  6  1  0  0  0  0
  5 13  1  0  0  0  0
  5  4  1  0  0  0  0
  6  9  1  0  0  0  0
  6  8  1  0  0  0  0
  7 16  1  0  0  0  0
  7  6  1  0  0  0  0
  7 14  1  0  0  0  0
  8 17  1  0  0  0  0
  8 19  1  0  0  0  0
  9 21  1  0  0  0  0
  9 20  1  0  0  0  0
 10  9  1  0  0  0  0
 15  7  1  0  0  0  0
 18  8  1  0  0  0  0
 22 10  1  0  0  0  0
M  END
