-29.8109
 OpenBabel10231816213D

 34 36  0  0  1  0  0  0  0  0999 V2000
    2.7199    1.7136   -1.3853 O   0  0  0  0  0  0  0  0  0  0  0  0
    3.3030    1.3022   -0.1579 C   0  0  0  0  0  0  0  0  0  0  0  0
    2.7783   -0.0416    0.3509 C   0  0  2  0  0  0  0  0  0  0  0  0
    2.5412   -1.0472   -0.8026 C   0  0  1  0  0  0  0  0  0  0  0  0
    2.8101   -2.3946   -0.3933 O   0  0  0  0  0  0  0  0  0  0  0  0
    1.0432   -0.9381   -1.1502 C   0  0  0  0  0  0  0  0  0  0  0  0
    0.3536   -0.4831    0.1281 C   0  0  2  0  0  0  0  0  0  0  0  0
   -0.9571    0.1440   -0.0040 N   0  0  0  0  0  0  0  0  0  0  0  0
   -1.0422    1.4463   -0.4691 C   0  0  0  0  0  0  0  0  0  0  0  0
   -0.0626    2.1167   -0.8081 O   0  0  0  0  0  0  0  0  0  0  0  0
   -2.3098    1.9616   -0.5347 N   0  0  0  0  0  0  0  0  0  0  0  0
   -3.4775    1.3235   -0.2071 C   0  0  0  0  0  0  0  0  0  0  0  0
   -4.5732    1.8817   -0.3037 O   0  0  0  0  0  0  0  0  0  0  0  0
   -3.3264   -0.0749    0.2677 C   0  0  0  0  0  0  0  0  0  0  0  0
   -2.0821   -0.5810    0.3358 C   0  0  0  0  0  0  0  0  0  0  0  0
   -4.5801   -0.8189    0.6299 C   0  0  0  0  0  0  0  0  0  0  0  0
    1.4196    0.0884    1.0233 C   0  0  1  0  0  0  0  0  0  0  0  0
    0.7118   -1.1659    1.4291 C   0  0  0  0  0  0  0  0  0  0  0  0
    1.8018    2.0089   -1.2067 H   0  0  0  0  0  0  0  0  0  0  0  0
    4.3773    1.2062   -0.3472 H   0  0  0  0  0  0  0  0  0  0  0  0
    3.1592    2.0837    0.5930 H   0  0  0  0  0  0  0  0  0  0  0  0
    3.4993   -0.4351    1.0794 H   0  0  0  0  0  0  0  0  0  0  0  0
    3.1698   -0.8404   -1.6708 H   0  0  0  0  0  0  0  0  0  0  0  0
    3.7405   -2.4454   -0.1187 H   0  0  0  0  0  0  0  0  0  0  0  0
    0.9163   -0.1784   -1.9263 H   0  0  0  0  0  0  0  0  0  0  0  0
    0.6329   -1.8871   -1.5084 H   0  0  0  0  0  0  0  0  0  0  0  0
   -2.3848    2.9149   -0.8704 H   0  0  0  0  0  0  0  0  0  0  0  0
   -1.9048   -1.5987    0.6793 H   0  0  0  0  0  0  0  0  0  0  0  0
   -5.2570   -0.8883   -0.2293 H   0  0  0  0  0  0  0  0  0  0  0  0
   -4.3713   -1.8404    0.9714 H   0  0  0  0  0  0  0  0  0  0  0  0
   -5.1231   -0.3058    1.4316 H   0  0  0  0  0  0  0  0  0  0  0  0
    1.2366    0.9962    1.5856 H   0  0  0  0  0  0  0  0  0  0  0  0
   -0.0177   -1.1231    2.2229 H   0  0  0  0  0  0  0  0  0  0  0  0
    1.2555   -2.0999    1.3658 H   0  0  0  0  0  0  0  0  0  0  0  0
  1 19  1  0  0  0  0
  1  2  1  0  0  0  0
  2  3  1  0  0  0  0
  2 21  1  0  0  0  0
  3 17  1  0  0  0  0
  3 22  1  1  0  0  0
  4 23  1  6  0  0  0
  4  5  1  0  0  0  0
  4  3  1  0  0  0  0
  5 24  1  0  0  0  0
  6  4  1  0  0  0  0
  6  7  1  0  0  0  0
  7  8  1  6  0  0  0
  7 17  1  0  0  0  0
  7 18  1  0  0  0  0
  8 15  1  0  0  0  0
  9  8  1  0  0  0  0
 10  9  2  0  0  0  0
 11  9  1  0  0  0  0
 11 12  1  0  0  0  0
 12 14  1  0  0  0  0
 13 12  2  0  0  0  0
 14 15  2  0  0  0  0
 14 16  1  0  0  0  0
 15 28  1  0  0  0  0
 16 30  1  0  0  0  0
 16 31  1  0  0  0  0
 17 18  1  0  0  0  0
 17 32  1  1  0  0  0
 18 33  1  0  0  0  0
 20  2  1  0  0  0  0
 25  6  1  0  0  0  0
 26  6  1  0  0  0  0
 27 11  1  0  0  0  0
 29 16  1  0  0  0  0
 34 18  1  0  0  0  0
M  END
