41.7058
 OpenBabel10231816213D

 43 44  0  0  0  0  0  0  0  0999 V2000
   -3.8080    2.7527    0.8329 C   0  0  0  0  0  0  0  0  0  0  0  0
   -3.6185    3.5587    1.7178 O   0  0  0  0  0  0  0  0  0  0  0  0
   -2.8282    1.9283    0.1190 C   0  0  0  0  0  0  0  0  0  0  0  0
   -3.5020    1.1404   -0.8013 C   0  0  0  0  0  0  0  0  0  0  0  0
   -4.9453    1.4454   -0.7263 C   0  0  0  0  0  0  0  0  0  0  0  0
   -5.0349    2.4341    0.3131 O   0  0  0  0  0  0  0  0  0  0  0  0
   -2.8182    0.2408   -1.6152 C   0  0  0  0  0  0  0  0  0  0  0  0
   -3.5485   -0.6073   -2.6170 C   0  0  0  0  0  0  0  0  0  0  0  0
   -1.4245    0.1566   -1.4467 C   0  0  0  0  0  0  0  0  0  0  0  0
   -0.7134    1.0007   -0.5534 C   0  0  0  0  0  0  0  0  0  0  0  0
   -1.4473    1.8766    0.2638 C   0  0  0  0  0  0  0  0  0  0  0  0
   -0.8544    2.6874    1.1842 O   0  0  0  0  0  0  0  0  0  0  0  0
    0.8007    0.9438   -0.5157 C   0  0  0  0  0  0  0  0  0  0  0  0
    1.3215    0.0177    0.5501 C   0  0  0  0  0  0  0  0  0  0  0  0
    2.3361   -0.8658    0.4508 C   0  0  0  0  0  0  0  0  0  0  0  0
    2.7289   -1.7021    1.6571 C   0  0  0  0  0  0  0  0  0  0  0  0
    4.0635   -1.2819    2.2748 C   0  0  0  0  0  0  0  0  0  0  0  0
    3.9666    0.0389    3.0066 C   0  0  0  0  0  0  0  0  0  0  0  0
    2.9322    0.6146    3.3020 O   0  0  0  0  0  0  0  0  0  0  0  0
    5.1801    0.5238    3.3593 O   0  0  0  0  0  0  0  0  0  0  0  0
    3.1467   -1.0986   -0.7956 C   0  0  0  0  0  0  0  0  0  0  0  0
   -0.7079   -0.7140   -2.2350 O   0  0  0  0  0  0  0  0  0  0  0  0
   -0.6220   -1.9972   -1.6119 C   0  0  0  0  0  0  0  0  0  0  0  0
   -5.3326    1.8802   -1.6515 H   0  0  0  0  0  0  0  0  0  0  0  0
   -5.5408    0.5755   -0.4293 H   0  0  0  0  0  0  0  0  0  0  0  0
   -4.1390   -1.3717   -2.1031 H   0  0  0  0  0  0  0  0  0  0  0  0
   -4.2082    0.0078   -3.2373 H   0  0  0  0  0  0  0  0  0  0  0  0
   -2.8641   -1.1166   -3.3023 H   0  0  0  0  0  0  0  0  0  0  0  0
    0.0749    2.4459    1.3272 H   0  0  0  0  0  0  0  0  0  0  0  0
    1.1741    0.6822   -1.5094 H   0  0  0  0  0  0  0  0  0  0  0  0
    1.1997    1.9494   -0.3379 H   0  0  0  0  0  0  0  0  0  0  0  0
    0.8201    0.1071    1.5160 H   0  0  0  0  0  0  0  0  0  0  0  0
    1.9430   -1.6694    2.4231 H   0  0  0  0  0  0  0  0  0  0  0  0
    2.7887   -2.7527    1.3452 H   0  0  0  0  0  0  0  0  0  0  0  0
    4.3735   -2.0380    3.0047 H   0  0  0  0  0  0  0  0  0  0  0  0
    4.8372   -1.2113    1.5024 H   0  0  0  0  0  0  0  0  0  0  0  0
    5.9313   -0.0381    3.0941 H   0  0  0  0  0  0  0  0  0  0  0  0
    2.6459   -0.7638   -1.7063 H   0  0  0  0  0  0  0  0  0  0  0  0
    3.3481   -2.1666   -0.9284 H   0  0  0  0  0  0  0  0  0  0  0  0
    4.1040   -0.5732   -0.7228 H   0  0  0  0  0  0  0  0  0  0  0  0
   -1.5641   -2.5432   -1.7213 H   0  0  0  0  0  0  0  0  0  0  0  0
    0.1626   -2.5617   -2.1247 H   0  0  0  0  0  0  0  0  0  0  0  0
   -0.3575   -1.9354   -0.5517 H   0  0  0  0  0  0  0  0  0  0  0  0
  1  2  2  0  0  0  0
  3 11  1  0  0  0  0
  3  1  1  0  0  0  0
  4  5  1  0  0  0  0
  4  3  2  0  0  0  0
  5 25  1  0  0  0  0
  5  6  1  0  0  0  0
  6  1  1  0  0  0  0
  7  9  2  0  0  0  0
  7  4  1  0  0  0  0
  8 26  1  0  0  0  0
  8  7  1  0  0  0  0
  9 10  1  0  0  0  0
 10 13  1  0  0  0  0
 10 11  2  0  0  0  0
 11 12  1  0  0  0  0
 12 29  1  0  0  0  0
 13 31  1  0  0  0  0
 13 14  1  0  0  0  0
 14 32  1  0  0  0  0
 15 14  2  0  0  0  0
 15 16  1  0  0  0  0
 16 17  1  0  0  0  0
 16 33  1  0  0  0  0
 17 35  1  0  0  0  0
 17 18  1  0  0  0  0
 18 19  2  0  0  0  0
 18 20  1  0  0  0  0
 21 40  1  0  0  0  0
 21 15  1  0  0  0  0
 22 23  1  0  0  0  0
 22  9  1  0  0  0  0
 23 43  1  0  0  0  0
 24  5  1  0  0  0  0
 27  8  1  0  0  0  0
 28  8  1  0  0  0  0
 30 13  1  0  0  0  0
 34 16  1  0  0  0  0
 36 17  1  0  0  0  0
 37 20  1  0  0  0  0
 38 21  1  0  0  0  0
 39 21  1  0  0  0  0
 41 23  1  0  0  0  0
 42 23  1  0  0  0  0
M  END
