-22.7682
 OpenBabel10231816213D

 34 36  0  0  1  0  0  0  0  0999 V2000
    1.8864    2.2325   -0.5139 O   0  0  0  0  0  0  0  0  0  0  0  0
    2.9564    1.4898    0.0693 C   0  0  0  0  0  0  0  0  0  0  0  0
    2.5335    0.0328    0.2490 C   0  0  2  0  0  0  0  0  0  0  0  0
    2.1480   -0.6338   -1.0962 C   0  0  1  0  0  0  0  0  0  0  0  0
    3.2529   -1.3219   -1.6719 O   0  0  0  0  0  0  0  0  0  0  0  0
    1.0465   -1.6423   -0.7436 C   0  0  0  0  0  0  0  0  0  0  0  0
    0.3406   -1.0220    0.4412 C   0  0  2  0  0  0  0  0  0  0  0  0
   -1.0742   -0.7366    0.2896 N   0  0  0  0  0  0  0  0  0  0  0  0
   -1.9841   -1.7832    0.4280 C   0  0  0  0  0  0  0  0  0  0  0  0
   -1.6737   -2.9553    0.6388 O   0  0  0  0  0  0  0  0  0  0  0  0
   -3.3003   -1.4328    0.3044 N   0  0  0  0  0  0  0  0  0  0  0  0
   -3.7854   -0.1846    0.0382 C   0  0  0  0  0  0  0  0  0  0  0  0
   -4.9855    0.0393   -0.0547 O   0  0  0  0  0  0  0  0  0  0  0  0
   -2.7749    0.8849   -0.1487 C   0  0  0  0  0  0  0  0  0  0  0  0
   -1.4791    0.5467   -0.0089 C   0  0  0  0  0  0  0  0  0  0  0  0
   -3.2761    2.2604   -0.4662 C   0  0  0  0  0  0  0  0  0  0  0  0
    1.2873   -0.0646    1.1010 C   0  0  1  0  0  0  0  0  0  0  0  0
    0.9156   -1.3297    1.8095 C   0  0  0  0  0  0  0  0  0  0  0  0
    2.1715    3.1597   -0.5757 H   0  0  0  0  0  0  0  0  0  0  0  0
    3.8297    1.5654   -0.5852 H   0  0  0  0  0  0  0  0  0  0  0  0
    3.1993    1.9351    1.0405 H   0  0  0  0  0  0  0  0  0  0  0  0
    3.3554   -0.5172    0.7257 H   0  0  0  0  0  0  0  0  0  0  0  0
    1.7590    0.0890   -1.8224 H   0  0  0  0  0  0  0  0  0  0  0  0
    3.8593   -0.6571   -2.0384 H   0  0  0  0  0  0  0  0  0  0  0  0
    0.3854   -1.8140   -1.6002 H   0  0  0  0  0  0  0  0  0  0  0  0
    1.4765   -2.6149   -0.4750 H   0  0  0  0  0  0  0  0  0  0  0  0
   -3.9734   -2.1765    0.4127 H   0  0  0  0  0  0  0  0  0  0  0  0
   -0.7020    1.2902   -0.1405 H   0  0  0  0  0  0  0  0  0  0  0  0
   -3.8331    2.2544   -1.4097 H   0  0  0  0  0  0  0  0  0  0  0  0
   -2.4575    2.9798   -0.5721 H   0  0  0  0  0  0  0  0  0  0  0  0
   -3.9396    2.6286    0.3197 H   0  0  0  0  0  0  0  0  0  0  0  0
    0.9175    0.8710    1.4967 H   0  0  0  0  0  0  0  0  0  0  0  0
    1.6605   -2.1123    1.8924 H   0  0  0  0  0  0  0  0  0  0  0  0
    0.2571   -1.2608    2.6666 H   0  0  0  0  0  0  0  0  0  0  0  0
  1  2  1  0  0  0  0
  2  3  1  0  0  0  0
  2 21  1  0  0  0  0
  3 22  1  1  0  0  0
  3 17  1  0  0  0  0
  4 23  1  6  0  0  0
  4  6  1  0  0  0  0
  4  3  1  0  0  0  0
  5  4  1  0  0  0  0
  6 26  1  0  0  0  0
  6  7  1  0  0  0  0
  7  8  1  6  0  0  0
  7 17  1  0  0  0  0
  7 18  1  0  0  0  0
  8  9  1  0  0  0  0
  9 10  2  0  0  0  0
 11 27  1  0  0  0  0
 11  9  1  0  0  0  0
 12 11  1  0  0  0  0
 13 12  2  0  0  0  0
 14 15  2  0  0  0  0
 14 12  1  0  0  0  0
 15  8  1  0  0  0  0
 16 14  1  0  0  0  0
 16 31  1  0  0  0  0
 17 32  1  1  0  0  0
 17 18  1  0  0  0  0
 18 33  1  0  0  0  0
 18 34  1  0  0  0  0
 19  1  1  0  0  0  0
 20  2  1  0  0  0  0
 24  5  1  0  0  0  0
 25  6  1  0  0  0  0
 28 15  1  0  0  0  0
 29 16  1  0  0  0  0
 30 16  1  0  0  0  0
M  END
