-19.8228
 OpenBabel10231816213D

 34 36  0  0  1  0  0  0  0  0999 V2000
    2.8718    1.8647   -1.2391 O   0  0  0  0  0  0  0  0  0  0  0  0
    3.5943    1.0450   -0.3291 C   0  0  0  0  0  0  0  0  0  0  0  0
    2.6726   -0.0098    0.2634 C   0  0  2  0  0  0  0  0  0  0  0  0
    2.2484   -1.0799   -0.7572 C   0  0  1  0  0  0  0  0  0  0  0  0
    3.2817   -2.0530   -0.8741 O   0  0  0  0  0  0  0  0  0  0  0  0
    0.9616   -1.6714   -0.1437 C   0  0  0  0  0  0  0  0  0  0  0  0
    0.2764   -0.4840    0.5224 C   0  0  2  0  0  0  0  0  0  0  0  0
   -1.0277   -0.0805   -0.0001 N   0  0  0  0  0  0  0  0  0  0  0  0
   -1.1469    0.3494   -1.3194 C   0  0  0  0  0  0  0  0  0  0  0  0
   -0.2288    0.3685   -2.1447 O   0  0  0  0  0  0  0  0  0  0  0  0
   -2.3997    0.7503   -1.7030 N   0  0  0  0  0  0  0  0  0  0  0  0
   -3.5223    0.7315   -0.9340 C   0  0  0  0  0  0  0  0  0  0  0  0
   -4.6109    1.1059   -1.3581 O   0  0  0  0  0  0  0  0  0  0  0  0
   -3.3596    0.2137    0.4437 C   0  0  0  0  0  0  0  0  0  0  0  0
   -2.1304   -0.1671    0.8273 C   0  0  0  0  0  0  0  0  0  0  0  0
   -4.5818    0.1487    1.3010 C   0  0  0  0  0  0  0  0  0  0  0  0
    1.3607    0.5396    0.7788 C   0  0  1  0  0  0  0  0  0  0  0  0
    0.6888   -0.1111    1.9380 C   0  0  0  0  0  0  0  0  0  0  0  0
    3.4921    2.4970   -1.6332 H   0  0  0  0  0  0  0  0  0  0  0  0
    4.4318    0.5778   -0.8587 H   0  0  0  0  0  0  0  0  0  0  0  0
    3.9970    1.6782    0.4689 H   0  0  0  0  0  0  0  0  0  0  0  0
    3.2165   -0.5045    1.0801 H   0  0  0  0  0  0  0  0  0  0  0  0
    2.0465   -0.6429   -1.7412 H   0  0  0  0  0  0  0  0  0  0  0  0
    3.0461   -2.6396   -1.6127 H   0  0  0  0  0  0  0  0  0  0  0  0
    0.3412   -2.1513   -0.9076 H   0  0  0  0  0  0  0  0  0  0  0  0
    1.2046   -2.4400    0.6004 H   0  0  0  0  0  0  0  0  0  0  0  0
   -2.4861    1.0741   -2.6524 H   0  0  0  0  0  0  0  0  0  0  0  0
   -1.9638   -0.5586    1.8247 H   0  0  0  0  0  0  0  0  0  0  0  0
   -5.3355   -0.5057    0.8500 H   0  0  0  0  0  0  0  0  0  0  0  0
   -5.0212    1.1445    1.4226 H   0  0  0  0  0  0  0  0  0  0  0  0
   -4.3604   -0.2384    2.3011 H   0  0  0  0  0  0  0  0  0  0  0  0
    1.1617    1.5774    0.5414 H   0  0  0  0  0  0  0  0  0  0  0  0
    0.0276    0.5068    2.5323 H   0  0  0  0  0  0  0  0  0  0  0  0
    1.2541   -0.8354    2.5125 H   0  0  0  0  0  0  0  0  0  0  0  0
  1  2  1  0  0  0  0
  2  3  1  0  0  0  0
  2 21  1  0  0  0  0
  3 17  1  0  0  0  0
  3 22  1  1  0  0  0
  4 23  1  6  0  0  0
  4  6  1  0  0  0  0
  4  3  1  0  0  0  0
  5  4  1  0  0  0  0
  6  7  1  0  0  0  0
  6 26  1  0  0  0  0
  7  8  1  6  0  0  0
  7 17  1  0  0  0  0
  7 18  1  0  0  0  0
  8 15  1  0  0  0  0
  9  8  1  0  0  0  0
 10  9  2  0  0  0  0
 11  9  1  0  0  0  0
 11 12  1  0  0  0  0
 12 14  1  0  0  0  0
 13 12  2  0  0  0  0
 14 15  2  0  0  0  0
 14 16  1  0  0  0  0
 15 28  1  0  0  0  0
 16 30  1  0  0  0  0
 16 31  1  0  0  0  0
 17 32  1  6  0  0  0
 17 18  1  0  0  0  0
 18 34  1  0  0  0  0
 18 33  1  0  0  0  0
 19  1  1  0  0  0  0
 20  2  1  0  0  0  0
 24  5  1  0  0  0  0
 25  6  1  0  0  0  0
 27 11  1  0  0  0  0
 29 16  1  0  0  0  0
M  END
