-17.2737
 OpenBabel10231816213D

 34 36  0  0  1  0  0  0  0  0999 V2000
    2.8645    1.8780   -1.3750 O   0  0  0  0  0  0  0  0  0  0  0  0
    3.5859    1.0474   -0.4753 C   0  0  0  0  0  0  0  0  0  0  0  0
    2.6755   -0.0093    0.1419 C   0  0  2  0  0  0  0  0  0  0  0  0
    2.2098   -1.0734   -0.8730 C   0  0  1  0  0  0  0  0  0  0  0  0
    3.2038   -2.0696   -1.0863 O   0  0  0  0  0  0  0  0  0  0  0  0
    0.9335   -1.6604   -0.2353 C   0  0  0  0  0  0  0  0  0  0  0  0
    0.2776   -0.4753    0.4648 C   0  0  2  0  0  0  0  0  0  0  0  0
   -1.0430   -0.0710   -0.0184 N   0  0  0  0  0  0  0  0  0  0  0  0
   -1.2094    0.3801   -1.3293 C   0  0  0  0  0  0  0  0  0  0  0  0
   -0.3220    0.4353   -2.1750 O   0  0  0  0  0  0  0  0  0  0  0  0
   -2.4827    0.7616   -1.6640 N   0  0  0  0  0  0  0  0  0  0  0  0
   -3.5829    0.7136   -0.8606 C   0  0  0  0  0  0  0  0  0  0  0  0
   -4.6888    1.0799   -1.2415 O   0  0  0  0  0  0  0  0  0  0  0  0
   -3.3619    0.1793    0.5019 C   0  0  0  0  0  0  0  0  0  0  0  0
   -2.1178   -0.1866    0.8421 C   0  0  0  0  0  0  0  0  0  0  0  0
   -4.5486    0.0938    1.4071 C   0  0  0  0  0  0  0  0  0  0  0  0
    1.3773    0.5385    0.6997 C   0  0  1  0  0  0  0  0  0  0  0  0
    0.7287   -0.1132    1.8756 C   0  0  0  0  0  0  0  0  0  0  0  0
    3.5045    2.4654   -1.8044 H   0  0  0  0  0  0  0  0  0  0  0  0
    4.4084    0.5742   -1.0214 H   0  0  0  0  0  0  0  0  0  0  0  0
    4.0101    1.6836    0.3074 H   0  0  0  0  0  0  0  0  0  0  0  0
    3.2439   -0.5006    0.9431 H   0  0  0  0  0  0  0  0  0  0  0  0
    1.9732   -0.6164   -1.8391 H   0  0  0  0  0  0  0  0  0  0  0  0
    3.4263   -2.4767   -0.2333 H   0  0  0  0  0  0  0  0  0  0  0  0
    1.1802   -2.4463    0.4891 H   0  0  0  0  0  0  0  0  0  0  0  0
    0.2955   -2.1195   -0.9983 H   0  0  0  0  0  0  0  0  0  0  0  0
   -2.6122    1.0989   -2.6050 H   0  0  0  0  0  0  0  0  0  0  0  0
   -1.9124   -0.5876    1.8295 H   0  0  0  0  0  0  0  0  0  0  0  0
   -4.2816   -0.2989    2.3937 H   0  0  0  0  0  0  0  0  0  0  0  0
   -4.9915    1.0848    1.5538 H   0  0  0  0  0  0  0  0  0  0  0  0
   -5.3098   -0.5672    0.9796 H   0  0  0  0  0  0  0  0  0  0  0  0
    1.1712    1.5749    0.4683 H   0  0  0  0  0  0  0  0  0  0  0  0
    1.2928   -0.8406    2.4466 H   0  0  0  0  0  0  0  0  0  0  0  0
    0.1017    0.5233    2.4912 H   0  0  0  0  0  0  0  0  0  0  0  0
  1  2  1  0  0  0  0
  2  3  1  0  0  0  0
  2 21  1  0  0  0  0
  3 17  1  0  0  0  0
  3 22  1  1  0  0  0
  4 23  1  6  0  0  0
  4  6  1  0  0  0  0
  4  3  1  0  0  0  0
  5  4  1  0  0  0  0
  5 24  1  0  0  0  0
  6  7  1  0  0  0  0
  6 25  1  0  0  0  0
  7  8  1  6  0  0  0
  7 17  1  0  0  0  0
  7 18  1  0  0  0  0
  8 15  1  0  0  0  0
  9  8  1  0  0  0  0
 10  9  2  0  0  0  0
 11  9  1  0  0  0  0
 11 12  1  0  0  0  0
 12 14  1  0  0  0  0
 13 12  2  0  0  0  0
 14 15  2  0  0  0  0
 14 16  1  0  0  0  0
 15 28  1  0  0  0  0
 16 30  1  0  0  0  0
 16 29  1  0  0  0  0
 17 32  1  6  0  0  0
 17 18  1  0  0  0  0
 18 33  1  0  0  0  0
 18 34  1  0  0  0  0
 19  1  1  0  0  0  0
 20  2  1  0  0  0  0
 26  6  1  0  0  0  0
 27 11  1  0  0  0  0
 31 16  1  0  0  0  0
M  END
