-25.1769
 OpenBabel10231816213D

 34 36  0  0  1  0  0  0  0  0999 V2000
    4.2099    1.2244   -1.2140 O   0  0  0  0  0  0  0  0  0  0  0  0
    2.9627    1.3609   -0.5433 C   0  0  0  0  0  0  0  0  0  0  0  0
    2.6639    0.0956    0.2650 C   0  0  2  0  0  0  0  0  0  0  0  0
    2.4785   -1.1334   -0.6598 C   0  0  1  0  0  0  0  0  0  0  0  0
    2.8999   -2.3316    0.0044 O   0  0  0  0  0  0  0  0  0  0  0  0
    0.9636   -1.2231   -0.9293 C   0  0  0  0  0  0  0  0  0  0  0  0
    0.2878   -0.5344    0.2557 C   0  0  2  0  0  0  0  0  0  0  0  0
   -1.0154    0.0650   -0.0002 N   0  0  0  0  0  0  0  0  0  0  0  0
   -1.1183    1.1891   -0.8191 C   0  0  0  0  0  0  0  0  0  0  0  0
   -0.1768    1.7500   -1.3752 O   0  0  0  0  0  0  0  0  0  0  0  0
   -2.3867    1.6804   -0.9960 N   0  0  0  0  0  0  0  0  0  0  0  0
   -3.5250    1.1803   -0.4430 C   0  0  0  0  0  0  0  0  0  0  0  0
   -4.6232    1.7014   -0.6317 O   0  0  0  0  0  0  0  0  0  0  0  0
   -3.3670   -0.0315    0.3939 C   0  0  0  0  0  0  0  0  0  0  0  0
   -2.1318   -0.5241    0.5606 C   0  0  0  0  0  0  0  0  0  0  0  0
   -4.6044   -0.6144    0.9938 C   0  0  0  0  0  0  0  0  0  0  0  0
    1.3478    0.2273    1.0007 C   0  0  1  0  0  0  0  0  0  0  0  0
    0.6925   -0.9493    1.6640 C   0  0  0  0  0  0  0  0  0  0  0  0
    4.3092    2.0181   -1.7698 H   0  0  0  0  0  0  0  0  0  0  0  0
    3.0218    2.2334    0.1165 H   0  0  0  0  0  0  0  0  0  0  0  0
    2.1940    1.5533   -1.2938 H   0  0  0  0  0  0  0  0  0  0  0  0
    3.4773   -0.0813    0.9787 H   0  0  0  0  0  0  0  0  0  0  0  0
    3.0485   -1.0740   -1.5918 H   0  0  0  0  0  0  0  0  0  0  0  0
    3.8468   -2.2233    0.2021 H   0  0  0  0  0  0  0  0  0  0  0  0
    0.7321   -0.6894   -1.8574 H   0  0  0  0  0  0  0  0  0  0  0  0
    0.6180   -2.2574   -1.0215 H   0  0  0  0  0  0  0  0  0  0  0  0
   -2.4752    2.4976   -1.5775 H   0  0  0  0  0  0  0  0  0  0  0  0
   -1.9609   -1.4140    1.1589 H   0  0  0  0  0  0  0  0  0  0  0  0
   -5.1024    0.1192    1.6363 H   0  0  0  0  0  0  0  0  0  0  0  0
   -5.3037   -0.9174    0.2076 H   0  0  0  0  0  0  0  0  0  0  0  0
   -4.3851   -1.4969    1.6045 H   0  0  0  0  0  0  0  0  0  0  0  0
    1.1405    1.2125    1.3942 H   0  0  0  0  0  0  0  0  0  0  0  0
    1.2589   -1.8647    1.7959 H   0  0  0  0  0  0  0  0  0  0  0  0
    0.0220   -0.7482    2.4904 H   0  0  0  0  0  0  0  0  0  0  0  0
  1  2  1  0  0  0  0
  2 20  1  0  0  0  0
  2  3  1  0  0  0  0
  3 22  1  1  0  0  0
  3 17  1  0  0  0  0
  4 23  1  6  0  0  0
  4  5  1  0  0  0  0
  4  3  1  0  0  0  0
  5 24  1  0  0  0  0
  6  4  1  0  0  0  0
  6  7  1  0  0  0  0
  7  8  1  6  0  0  0
  7 17  1  0  0  0  0
  7 18  1  0  0  0  0
  8 15  1  0  0  0  0
  9  8  1  0  0  0  0
 10  9  2  0  0  0  0
 11  9  1  0  0  0  0
 11 12  1  0  0  0  0
 12 14  1  0  0  0  0
 13 12  2  0  0  0  0
 14 15  2  0  0  0  0
 14 16  1  0  0  0  0
 15 28  1  0  0  0  0
 16 31  1  0  0  0  0
 16 29  1  0  0  0  0
 17 32  1  1  0  0  0
 17 18  1  0  0  0  0
 18 33  1  0  0  0  0
 18 34  1  0  0  0  0
 19  1  1  0  0  0  0
 21  2  1  0  0  0  0
 25  6  1  0  0  0  0
 26  6  1  0  0  0  0
 27 11  1  0  0  0  0
 30 16  1  0  0  0  0
M  END
