31.8842
 OpenBabel10231816213D

 43 44  0  0  0  0  0  0  0  0999 V2000
   -1.8963    3.2070   -0.0960 C   0  0  0  0  0  0  0  0  0  0  0  0
   -1.2032    4.2112   -0.0621 O   0  0  0  0  0  0  0  0  0  0  0  0
   -1.4686    1.8956   -0.5563 C   0  0  0  0  0  0  0  0  0  0  0  0
   -2.5295    1.0131   -0.4383 C   0  0  0  0  0  0  0  0  0  0  0  0
   -3.6890    1.7572    0.1080 C   0  0  0  0  0  0  0  0  0  0  0  0
   -3.1936    3.1026    0.2817 O   0  0  0  0  0  0  0  0  0  0  0  0
   -2.3626   -0.3188   -0.8125 C   0  0  0  0  0  0  0  0  0  0  0  0
   -3.4703   -1.3315   -0.6879 C   0  0  0  0  0  0  0  0  0  0  0  0
   -1.0932   -0.6810   -1.3378 C   0  0  0  0  0  0  0  0  0  0  0  0
    0.0019    0.2222   -1.4204 C   0  0  0  0  0  0  0  0  0  0  0  0
   -0.2155    1.5419   -1.0297 C   0  0  0  0  0  0  0  0  0  0  0  0
    0.7945    2.4546   -1.1070 O   0  0  0  0  0  0  0  0  0  0  0  0
    1.3806   -0.2331   -1.8578 C   0  0  0  0  0  0  0  0  0  0  0  0
    2.4268   -0.0486   -0.7876 C   0  0  0  0  0  0  0  0  0  0  0  0
    2.4278   -0.6701    0.4084 C   0  0  0  0  0  0  0  0  0  0  0  0
    3.5039   -0.3576    1.4288 C   0  0  0  0  0  0  0  0  0  0  0  0
    3.0645    0.5786    2.5593 C   0  0  0  0  0  0  0  0  0  0  0  0
    2.2441   -0.0965    3.6128 C   0  0  0  0  0  0  0  0  0  0  0  0
    2.1423   -1.3089    3.8201 O   0  0  0  0  0  0  0  0  0  0  0  0
    1.6304    0.7896    4.4222 O   0  0  0  0  0  0  0  0  0  0  0  0
    1.3890   -1.6854    0.8033 C   0  0  0  0  0  0  0  0  0  0  0  0
   -0.8836   -1.9954   -1.6883 O   0  0  0  0  0  0  0  0  0  0  0  0
   -1.2033   -2.2180   -3.0594 C   0  0  0  0  0  0  0  0  0  0  0  0
   -4.5341    1.8140   -0.5788 H   0  0  0  0  0  0  0  0  0  0  0  0
   -4.0146    1.4065    1.0874 H   0  0  0  0  0  0  0  0  0  0  0  0
   -4.2999   -1.0921   -1.3605 H   0  0  0  0  0  0  0  0  0  0  0  0
   -3.8594   -1.3626    0.3333 H   0  0  0  0  0  0  0  0  0  0  0  0
   -3.1225   -2.3432   -0.9342 H   0  0  0  0  0  0  0  0  0  0  0  0
    0.4478    3.3081   -0.7762 H   0  0  0  0  0  0  0  0  0  0  0  0
    1.6921    0.3233   -2.7515 H   0  0  0  0  0  0  0  0  0  0  0  0
    1.3512   -1.2878   -2.1576 H   0  0  0  0  0  0  0  0  0  0  0  0
    3.1941    0.7005   -0.9791 H   0  0  0  0  0  0  0  0  0  0  0  0
    4.3617    0.0975    0.9117 H   0  0  0  0  0  0  0  0  0  0  0  0
    3.8704   -1.3001    1.8518 H   0  0  0  0  0  0  0  0  0  0  0  0
    3.9516    0.9692    3.0718 H   0  0  0  0  0  0  0  0  0  0  0  0
    2.5017    1.4333    2.1689 H   0  0  0  0  0  0  0  0  0  0  0  0
    1.1571    0.2593    5.0956 H   0  0  0  0  0  0  0  0  0  0  0  0
    1.8480   -2.5364    1.3090 H   0  0  0  0  0  0  0  0  0  0  0  0
    0.8341   -2.0922   -0.0423 H   0  0  0  0  0  0  0  0  0  0  0  0
    0.6674   -1.2264    1.4827 H   0  0  0  0  0  0  0  0  0  0  0  0
   -0.5664   -1.6243   -3.7235 H   0  0  0  0  0  0  0  0  0  0  0  0
   -2.2555   -1.9952   -3.2650 H   0  0  0  0  0  0  0  0  0  0  0  0
   -1.0222   -3.2799   -3.2472 H   0  0  0  0  0  0  0  0  0  0  0  0
  1  2  2  0  0  0  0
  1  6  1  0  0  0  0
  3  4  1  0  0  0  0
  3  1  1  0  0  0  0
  4  5  1  0  0  0  0
  5  6  1  0  0  0  0
  5 25  1  0  0  0  0
  7  8  1  0  0  0  0
  7  4  2  0  0  0  0
  8 27  1  0  0  0  0
  9  7  1  0  0  0  0
 10  9  2  0  0  0  0
 10 11  1  0  0  0  0
 11  3  2  0  0  0  0
 12 11  1  0  0  0  0
 12 29  1  0  0  0  0
 13 10  1  0  0  0  0
 13 14  1  0  0  0  0
 14 15  2  0  0  0  0
 15 21  1  0  0  0  0
 15 16  1  0  0  0  0
 16 34  1  0  0  0  0
 16 17  1  0  0  0  0
 17 35  1  0  0  0  0
 17 18  1  0  0  0  0
 18 19  2  0  0  0  0
 18 20  1  0  0  0  0
 20 37  1  0  0  0  0
 21 38  1  0  0  0  0
 21 40  1  0  0  0  0
 22  9  1  0  0  0  0
 23 22  1  0  0  0  0
 24  5  1  0  0  0  0
 26  8  1  0  0  0  0
 28  8  1  0  0  0  0
 30 13  1  0  0  0  0
 31 13  1  0  0  0  0
 32 14  1  0  0  0  0
 33 16  1  0  0  0  0
 36 17  1  0  0  0  0
 39 21  1  0  0  0  0
 41 23  1  0  0  0  0
 42 23  1  0  0  0  0
 43 23  1  0  0  0  0
M  END
