24.8878
 OpenBabel10231816213D

 22 21  0  0  1  0  0  0  0  0999 V2000
    2.9347   -0.2824   -1.2787 O   0  0  0  0  0  0  0  0  0  0  0  0
    2.0927    0.2076   -0.5073 C   0  0  0  0  0  0  0  0  0  0  0  0
    2.1652    1.4811   -0.1232 O   0  0  0  0  0  0  0  0  0  0  0  0
    0.9833   -0.6634    0.0910 C   0  0  2  0  0  0  0  0  0  0  0  0
    1.0836   -1.9302   -0.6093 O   0  0  0  0  0  0  0  0  0  0  0  0
   -0.4790   -0.1829    0.0155 C   0  0  0  0  0  0  0  0  0  0  0  0
   -0.7660    0.4942   -1.3323 C   0  0  0  0  0  0  0  0  0  0  0  0
   -1.4186   -1.3985    0.1644 C   0  0  0  0  0  0  0  0  0  0  0  0
   -0.8193    0.7472    1.1913 C   0  0  0  0  0  0  0  0  0  0  0  0
   -0.0628    1.9548    1.1300 O   0  0  0  0  0  0  0  0  0  0  0  0
    1.4019    1.7373    0.4519 H   0  0  0  0  0  0  0  0  0  0  0  0
    1.2469   -0.8681    1.1339 H   0  0  0  0  0  0  0  0  0  0  0  0
    1.9181   -1.8825   -1.1278 H   0  0  0  0  0  0  0  0  0  0  0  0
   -0.1623    1.3966   -1.4774 H   0  0  0  0  0  0  0  0  0  0  0  0
   -0.5469   -0.1897   -2.1595 H   0  0  0  0  0  0  0  0  0  0  0  0
   -1.8191    0.7916   -1.4075 H   0  0  0  0  0  0  0  0  0  0  0  0
   -1.2443   -1.9157    1.1173 H   0  0  0  0  0  0  0  0  0  0  0  0
   -2.4690   -1.0889    0.1374 H   0  0  0  0  0  0  0  0  0  0  0  0
   -1.2639   -2.1182   -0.6447 H   0  0  0  0  0  0  0  0  0  0  0  0
   -0.5893    0.2412    2.1385 H   0  0  0  0  0  0  0  0  0  0  0  0
   -1.8920    0.9783    1.1802 H   0  0  0  0  0  0  0  0  0  0  0  0
   -0.2939    2.4906    1.9164 H   0  0  0  0  0  0  0  0  0  0  0  0
  1  2  2  0  0  0  0
  2  3  1  0  0  0  0
  2  4  1  0  0  0  0
  3 11  1  0  0  0  0
  4 12  1  1  0  0  0
  5  4  1  0  0  0  0
  6  4  1  0  0  0  0
  6  8  1  0  0  0  0
  6  9  1  0  0  0  0
  7  6  1  0  0  0  0
  8 17  1  0  0  0  0
  9 20  1  0  0  0  0
 10  9  1  0  0  0  0
 10 22  1  0  0  0  0
 13  5  1  0  0  0  0
 14  7  1  0  0  0  0
 15  7  1  0  0  0  0
 16  7  1  0  0  0  0
 18  8  1  0  0  0  0
 19  8  1  0  0  0  0
 21  9  1  0  0  0  0
M  END
