-29.8181
 OpenBabel10231816213D

 34 36  0  0  1  0  0  0  0  0999 V2000
    2.7493    1.7190   -1.3181 O   0  0  0  0  0  0  0  0  0  0  0  0
    3.3174    1.2739   -0.0954 C   0  0  0  0  0  0  0  0  0  0  0  0
    2.7743   -0.0754    0.3782 C   0  0  2  0  0  0  0  0  0  0  0  0
    2.5396   -1.0529   -0.7995 C   0  0  1  0  0  0  0  0  0  0  0  0
    2.7912   -2.4116   -0.4174 O   0  0  0  0  0  0  0  0  0  0  0  0
    1.0464   -0.9214   -1.1600 C   0  0  0  0  0  0  0  0  0  0  0  0
    0.3479   -0.4882    0.1211 C   0  0  2  0  0  0  0  0  0  0  0  0
   -0.9557    0.1538   -0.0104 N   0  0  0  0  0  0  0  0  0  0  0  0
   -1.0246    1.4668   -0.4469 C   0  0  0  0  0  0  0  0  0  0  0  0
   -0.0356    2.1360   -0.7604 O   0  0  0  0  0  0  0  0  0  0  0  0
   -2.2870    1.9945   -0.5142 N   0  0  0  0  0  0  0  0  0  0  0  0
   -3.4637    1.3597   -0.2137 C   0  0  0  0  0  0  0  0  0  0  0  0
   -4.5536    1.9290   -0.3098 O   0  0  0  0  0  0  0  0  0  0  0  0
   -3.3298   -0.0503    0.2315 C   0  0  0  0  0  0  0  0  0  0  0  0
   -2.0906   -0.5687    0.3014 C   0  0  0  0  0  0  0  0  0  0  0  0
   -4.5934   -0.7913    0.5638 C   0  0  0  0  0  0  0  0  0  0  0  0
    1.4100    0.0533    1.0393 C   0  0  1  0  0  0  0  0  0  0  0  0
    0.6862   -1.2027    1.4104 C   0  0  0  0  0  0  0  0  0  0  0  0
    1.8325    2.0189   -1.1410 H   0  0  0  0  0  0  0  0  0  0  0  0
    3.1751    2.0398    0.6718 H   0  0  0  0  0  0  0  0  0  0  0  0
    4.3922    1.1710   -0.2776 H   0  0  0  0  0  0  0  0  0  0  0  0
    3.4838   -0.4920    1.1052 H   0  0  0  0  0  0  0  0  0  0  0  0
    3.1791   -0.8334   -1.6566 H   0  0  0  0  0  0  0  0  0  0  0  0
    3.7179   -2.4776   -0.1339 H   0  0  0  0  0  0  0  0  0  0  0  0
    0.6308   -1.8581   -1.5435 H   0  0  0  0  0  0  0  0  0  0  0  0
    0.9349   -0.1434   -1.9201 H   0  0  0  0  0  0  0  0  0  0  0  0
   -2.3502    2.9558   -0.8294 H   0  0  0  0  0  0  0  0  0  0  0  0
   -1.9258   -1.5952    0.6239 H   0  0  0  0  0  0  0  0  0  0  0  0
   -5.1406   -0.2916    1.3712 H   0  0  0  0  0  0  0  0  0  0  0  0
   -4.3967   -1.8218    0.8846 H   0  0  0  0  0  0  0  0  0  0  0  0
   -5.2618   -0.8357   -0.3037 H   0  0  0  0  0  0  0  0  0  0  0  0
    1.2299    0.9504    1.6194 H   0  0  0  0  0  0  0  0  0  0  0  0
    1.2217   -2.1403    1.3322 H   0  0  0  0  0  0  0  0  0  0  0  0
   -0.0510   -1.1701    2.1975 H   0  0  0  0  0  0  0  0  0  0  0  0
  1 19  1  0  0  0  0
  1  2  1  0  0  0  0
  2  3  1  0  0  0  0
  2 20  1  0  0  0  0
  3 17  1  0  0  0  0
  3 22  1  1  0  0  0
  4 23  1  6  0  0  0
  4  5  1  0  0  0  0
  4  3  1  0  0  0  0
  5 24  1  0  0  0  0
  6  4  1  0  0  0  0
  6  7  1  0  0  0  0
  7  8  1  6  0  0  0
  7 17  1  0  0  0  0
  7 18  1  0  0  0  0
  8 15  1  0  0  0  0
  9  8  1  0  0  0  0
 10  9  2  0  0  0  0
 11  9  1  0  0  0  0
 11 12  1  0  0  0  0
 12 14  1  0  0  0  0
 13 12  2  0  0  0  0
 14 15  2  0  0  0  0
 14 16  1  0  0  0  0
 15 28  1  0  0  0  0
 16 30  1  0  0  0  0
 16 29  1  0  0  0  0
 17 18  1  0  0  0  0
 17 32  1  1  0  0  0
 18 34  1  0  0  0  0
 21  2  1  0  0  0  0
 25  6  1  0  0  0  0
 26  6  1  0  0  0  0
 27 11  1  0  0  0  0
 31 16  1  0  0  0  0
 33 18  1  0  0  0  0
M  END
