28.4581
 OpenBabel10231816213D

 22 21  0  0  1  0  0  0  0  0999 V2000
    2.2216    0.9338   -1.6983 O   0  0  0  0  0  0  0  0  0  0  0  0
    1.9214   -0.0629   -1.0842 C   0  0  0  0  0  0  0  0  0  0  0  0
    2.2186   -1.3074   -1.5243 O   0  0  0  0  0  0  0  0  0  0  0  0
    1.1593   -0.0637    0.2464 C   0  0  2  0  0  0  0  0  0  0  0  0
    1.3920   -1.3032    0.9227 O   0  0  0  0  0  0  0  0  0  0  0  0
   -0.3587    0.1346    0.0738 C   0  0  0  0  0  0  0  0  0  0  0  0
   -0.9814   -1.0066   -0.7509 C   0  0  0  0  0  0  0  0  0  0  0  0
   -0.6171    1.4708   -0.6283 C   0  0  0  0  0  0  0  0  0  0  0  0
   -1.0021    0.1428    1.4802 C   0  0  0  0  0  0  0  0  0  0  0  0
   -2.3755    0.5093    1.4565 O   0  0  0  0  0  0  0  0  0  0  0  0
    1.9254   -1.9266   -0.8259 H   0  0  0  0  0  0  0  0  0  0  0  0
    1.5523    0.7724    0.8409 H   0  0  0  0  0  0  0  0  0  0  0  0
    2.2587   -1.2538    1.3635 H   0  0  0  0  0  0  0  0  0  0  0  0
   -0.7313   -1.9852   -0.3234 H   0  0  0  0  0  0  0  0  0  0  0  0
   -2.0713   -0.9116   -0.7622 H   0  0  0  0  0  0  0  0  0  0  0  0
   -0.6246   -0.9899   -1.7874 H   0  0  0  0  0  0  0  0  0  0  0  0
   -0.1651    2.3020   -0.0731 H   0  0  0  0  0  0  0  0  0  0  0  0
   -1.6888    1.6516   -0.7268 H   0  0  0  0  0  0  0  0  0  0  0  0
   -0.1948    1.4679   -1.6369 H   0  0  0  0  0  0  0  0  0  0  0  0
   -0.9729   -0.8638    1.9011 H   0  0  0  0  0  0  0  0  0  0  0  0
   -0.4458    0.8127    2.1528 H   0  0  0  0  0  0  0  0  0  0  0  0
   -2.4198    1.4768    1.3840 H   0  0  0  0  0  0  0  0  0  0  0  0
  1  2  2  0  0  0  0
  2  4  1  0  0  0  0
  3  2  1  0  0  0  0
  3 11  1  0  0  0  0
  4 12  1  1  0  0  0
  4  5  1  0  0  0  0
  5 13  1  0  0  0  0
  6  4  1  0  0  0  0
  6  9  1  0  0  0  0
  7 14  1  0  0  0  0
  7  6  1  0  0  0  0
  8 17  1  0  0  0  0
  8  6  1  0  0  0  0
  9 20  1  0  0  0  0
  9 21  1  0  0  0  0
 10  9  1  0  0  0  0
 15  7  1  0  0  0  0
 16  7  1  0  0  0  0
 18  8  1  0  0  0  0
 19  8  1  0  0  0  0
 22 10  1  0  0  0  0
M  END
