45.4119
 OpenBabel10231816213D

 43 44  0  0  0  0  0  0  0  0999 V2000
   -4.0325    2.5034    0.9661 C   0  0  0  0  0  0  0  0  0  0  0  0
   -3.9367    3.4854    1.6935 O   0  0  0  0  0  0  0  0  0  0  0  0
   -2.9777    1.7227    0.3165 C   0  0  0  0  0  0  0  0  0  0  0  0
   -3.5800    0.7031   -0.4051 C   0  0  0  0  0  0  0  0  0  0  0  0
   -5.0447    0.8018   -0.2361 C   0  0  0  0  0  0  0  0  0  0  0  0
   -5.2205    1.9442    0.6171 O   0  0  0  0  0  0  0  0  0  0  0  0
   -2.8224   -0.2177   -1.1248 C   0  0  0  0  0  0  0  0  0  0  0  0
   -3.4662   -1.3631   -1.8604 C   0  0  0  0  0  0  0  0  0  0  0  0
   -1.4234   -0.0249   -1.1283 C   0  0  0  0  0  0  0  0  0  0  0  0
   -0.7855    0.9931   -0.3701 C   0  0  0  0  0  0  0  0  0  0  0  0
   -1.5916    1.8769    0.3629 C   0  0  0  0  0  0  0  0  0  0  0  0
   -1.0618    2.8744    1.1259 O   0  0  0  0  0  0  0  0  0  0  0  0
    0.7220    1.0750   -0.3272 C   0  0  0  0  0  0  0  0  0  0  0  0
    1.2904    0.4526    0.9183 C   0  0  0  0  0  0  0  0  0  0  0  0
    2.0698   -0.6459    0.9567 C   0  0  0  0  0  0  0  0  0  0  0  0
    2.7391   -1.0675    2.2531 C   0  0  0  0  0  0  0  0  0  0  0  0
    4.1904   -0.5697    2.3979 C   0  0  0  0  0  0  0  0  0  0  0  0
    5.1864   -1.3392    1.5608 C   0  0  0  0  0  0  0  0  0  0  0  0
    4.9527   -2.3968    1.0097 O   0  0  0  0  0  0  0  0  0  0  0  0
    6.4123   -0.7906    1.5096 O   0  0  0  0  0  0  0  0  0  0  0  0
    2.3314   -1.5105   -0.2514 C   0  0  0  0  0  0  0  0  0  0  0  0
   -0.6367   -0.9060   -1.8240 O   0  0  0  0  0  0  0  0  0  0  0  0
   -0.4961   -0.5205   -3.1935 C   0  0  0  0  0  0  0  0  0  0  0  0
   -5.5744    1.0011   -1.1692 H   0  0  0  0  0  0  0  0  0  0  0  0
   -5.4803   -0.0608    0.2694 H   0  0  0  0  0  0  0  0  0  0  0  0
   -2.7159   -2.0453   -2.2790 H   0  0  0  0  0  0  0  0  0  0  0  0
   -4.0990   -1.9493   -1.1879 H   0  0  0  0  0  0  0  0  0  0  0  0
   -4.0924   -1.0027   -2.6818 H   0  0  0  0  0  0  0  0  0  0  0  0
   -0.0940    2.8270    1.1322 H   0  0  0  0  0  0  0  0  0  0  0  0
    1.0348    2.1283   -0.3875 H   0  0  0  0  0  0  0  0  0  0  0  0
    1.1619    0.6125   -1.2171 H   0  0  0  0  0  0  0  0  0  0  0  0
    1.0656    0.9539    1.8578 H   0  0  0  0  0  0  0  0  0  0  0  0
    2.7217   -2.1593    2.3341 H   0  0  0  0  0  0  0  0  0  0  0  0
    2.1542   -0.6806    3.1031 H   0  0  0  0  0  0  0  0  0  0  0  0
    4.5009   -0.6952    3.4415 H   0  0  0  0  0  0  0  0  0  0  0  0
    4.2535    0.4960    2.1558 H   0  0  0  0  0  0  0  0  0  0  0  0
    6.4695    0.0378    2.0201 H   0  0  0  0  0  0  0  0  0  0  0  0
    1.4906   -1.5272   -0.9495 H   0  0  0  0  0  0  0  0  0  0  0  0
    2.5149   -2.5493    0.0393 H   0  0  0  0  0  0  0  0  0  0  0  0
    3.2073   -1.1442   -0.7876 H   0  0  0  0  0  0  0  0  0  0  0  0
    0.1361   -1.2830   -3.6606 H   0  0  0  0  0  0  0  0  0  0  0  0
   -1.4618   -0.4965   -3.7064 H   0  0  0  0  0  0  0  0  0  0  0  0
   -0.0120    0.4564   -3.2940 H   0  0  0  0  0  0  0  0  0  0  0  0
  1  2  2  0  0  0  0
  3 11  1  0  0  0  0
  3  1  1  0  0  0  0
  4  5  1  0  0  0  0
  4  3  2  0  0  0  0
  5 25  1  0  0  0  0
  5  6  1  0  0  0  0
  6  1  1  0  0  0  0
  7  4  1  0  0  0  0
  8 27  1  0  0  0  0
  8  7  1  0  0  0  0
  9  7  2  0  0  0  0
  9 10  1  0  0  0  0
 10 13  1  0  0  0  0
 10 11  2  0  0  0  0
 11 12  1  0  0  0  0
 12 29  1  0  0  0  0
 13 14  1  0  0  0  0
 14 15  2  0  0  0  0
 14 32  1  0  0  0  0
 15 16  1  0  0  0  0
 16 33  1  0  0  0  0
 16 17  1  0  0  0  0
 16 34  1  0  0  0  0
 17 35  1  0  0  0  0
 18 17  1  0  0  0  0
 19 18  2  0  0  0  0
 20 18  1  0  0  0  0
 20 37  1  0  0  0  0
 21 39  1  0  0  0  0
 21 15  1  0  0  0  0
 22  9  1  0  0  0  0
 23 22  1  0  0  0  0
 24  5  1  0  0  0  0
 26  8  1  0  0  0  0
 28  8  1  0  0  0  0
 30 13  1  0  0  0  0
 31 13  1  0  0  0  0
 36 17  1  0  0  0  0
 38 21  1  0  0  0  0
 40 21  1  0  0  0  0
 41 23  1  0  0  0  0
 42 23  1  0  0  0  0
 43 23  1  0  0  0  0
M  END
