69.634
 OpenBabel10231816213D

 50 52  0  0  1  0  0  0  0  0999 V2000
    5.8638    2.0530   -1.6178 O   0  0  0  0  0  0  0  0  0  0  0  0
    4.9726    2.0019   -0.6088 C   0  0  0  0  0  0  0  0  0  0  0  0
    5.2222    2.5141    0.4687 O   0  0  0  0  0  0  0  0  0  0  0  0
    3.7114    1.2609   -0.9991 C   0  0  1  0  0  0  0  0  0  0  0  0
    4.0263   -0.2284   -1.2076 C   0  0  0  0  0  0  0  0  0  0  0  0
    2.7765   -1.0824   -0.9855 C   0  0  0  0  0  0  0  0  0  0  0  0
    2.3124   -1.0339    0.5020 C   0  0  2  0  0  0  0  0  0  0  0  0
    2.6572    0.3559    1.1104 C   0  0  0  0  0  0  0  0  0  0  0  0
    2.6021    1.4637    0.0517 C   0  0  0  0  0  0  0  0  0  0  0  0
    3.0907   -2.0406    1.2750 C   0  0  0  0  0  0  0  0  0  0  0  0
    3.7172   -2.8279    1.8463 N   0  0  0  0  0  0  0  0  0  0  0  0
    0.8218   -1.3981    0.5509 C   0  0  0  0  0  0  0  0  0  0  0  0
    0.4115   -2.6996    0.2008 C   0  0  0  0  0  0  0  0  0  0  0  0
   -0.9385   -3.0640    0.2056 C   0  0  0  0  0  0  0  0  0  0  0  0
   -1.9192   -2.1354    0.5584 C   0  0  0  0  0  0  0  0  0  0  0  0
   -3.2596   -2.3932    0.6250 O   0  0  0  0  0  0  0  0  0  0  0  0
   -3.6869   -3.6897    0.2471 C   0  0  0  0  0  0  0  0  0  0  0  0
   -1.5281   -0.8376    0.8936 C   0  0  0  0  0  0  0  0  0  0  0  0
   -0.1781   -0.4800    0.9107 C   0  0  0  0  0  0  0  0  0  0  0  0
   -2.4136    0.1142    1.3296 O   0  0  0  0  0  0  0  0  0  0  0  0
   -3.2274    0.6692    0.2918 C   0  0  0  0  0  0  0  0  0  0  0  0
   -4.3023    1.5440    0.9584 C   0  0  0  0  0  0  0  0  0  0  0  0
   -4.3347    2.8700    0.1967 C   0  0  0  0  0  0  0  0  0  0  0  0
   -3.5099    2.6347   -1.0585 C   0  0  0  0  0  0  0  0  0  0  0  0
   -2.4546    1.6419   -0.6016 C   0  0  0  0  0  0  0  0  0  0  0  0
    6.6277    2.5392   -1.2428 H   0  0  0  0  0  0  0  0  0  0  0  0
    3.3622    1.7051   -1.9408 H   0  0  0  0  0  0  0  0  0  0  0  0
    4.8177   -0.5557   -0.5194 H   0  0  0  0  0  0  0  0  0  0  0  0
    4.4212   -0.3879   -2.2173 H   0  0  0  0  0  0  0  0  0  0  0  0
    1.9813   -0.7090   -1.6478 H   0  0  0  0  0  0  0  0  0  0  0  0
    2.9766   -2.1139   -1.3024 H   0  0  0  0  0  0  0  0  0  0  0  0
    2.0216    0.5947    1.9704 H   0  0  0  0  0  0  0  0  0  0  0  0
    3.6762    0.3433    1.5208 H   0  0  0  0  0  0  0  0  0  0  0  0
    2.6819    2.4432    0.5329 H   0  0  0  0  0  0  0  0  0  0  0  0
    1.6266    1.4479   -0.4504 H   0  0  0  0  0  0  0  0  0  0  0  0
    1.1486   -3.4552   -0.0709 H   0  0  0  0  0  0  0  0  0  0  0  0
   -1.1810   -4.0865   -0.0643 H   0  0  0  0  0  0  0  0  0  0  0  0
   -3.4248   -3.9065   -0.7938 H   0  0  0  0  0  0  0  0  0  0  0  0
   -3.2846   -4.4513    0.9232 H   0  0  0  0  0  0  0  0  0  0  0  0
   -4.7770   -3.7030    0.3302 H   0  0  0  0  0  0  0  0  0  0  0  0
    0.0532    0.5386    1.2075 H   0  0  0  0  0  0  0  0  0  0  0  0
   -3.7186   -0.1047   -0.3135 H   0  0  0  0  0  0  0  0  0  0  0  0
   -5.2784    1.0473    0.9151 H   0  0  0  0  0  0  0  0  0  0  0  0
   -4.0829    1.7151    2.0185 H   0  0  0  0  0  0  0  0  0  0  0  0
   -3.8740    3.6561    0.8076 H   0  0  0  0  0  0  0  0  0  0  0  0
   -5.3540    3.1966   -0.0334 H   0  0  0  0  0  0  0  0  0  0  0  0
   -4.1354    2.1965   -1.8446 H   0  0  0  0  0  0  0  0  0  0  0  0
   -3.0736    3.5588   -1.4502 H   0  0  0  0  0  0  0  0  0  0  0  0
   -1.9788    1.1319   -1.4454 H   0  0  0  0  0  0  0  0  0  0  0  0
   -1.6644    2.1468   -0.0334 H   0  0  0  0  0  0  0  0  0  0  0  0
  1 26  1  0  0  0  0
  1  2  1  0  0  0  0
  2  3  2  0  0  0  0
  4 27  1  6  0  0  0
  4  2  1  0  0  0  0
  4  9  1  0  0  0  0
  5  4  1  0  0  0  0
  5  6  1  0  0  0  0
  5 28  1  0  0  0  0
  6  7  1  0  0  0  0
  7 12  1  1  0  0  0
  7  8  1  0  0  0  0
  7 10  1  0  0  0  0
  8 33  1  0  0  0  0
  8 32  1  0  0  0  0
  9 34  1  0  0  0  0
  9  8  1  0  0  0  0
 10 11  3  0  0  0  0
 12 19  2  0  0  0  0
 13 14  2  0  0  0  0
 13 12  1  0  0  0  0
 14 15  1  0  0  0  0
 15 16  1  0  0  0  0
 15 18  2  0  0  0  0
 17 40  1  0  0  0  0
 17 16  1  0  0  0  0
 17 39  1  0  0  0  0
 18 19  1  0  0  0  0
 18 20  1  0  0  0  0
 19 41  1  0  0  0  0
 21 22  1  0  0  0  0
 21 20  1  0  0  0  0
 22 44  1  0  0  0  0
 23 45  1  0  0  0  0
 23 22  1  0  0  0  0
 24 25  1  0  0  0  0
 24 23  1  0  0  0  0
 25 50  1  0  0  0  0
 25 21  1  0  0  0  0
 29  5  1  0  0  0  0
 30  6  1  0  0  0  0
 31  6  1  0  0  0  0
 35  9  1  0  0  0  0
 36 13  1  0  0  0  0
 37 14  1  0  0  0  0
 38 17  1  0  0  0  0
 42 21  1  0  0  0  0
 43 22  1  0  0  0  0
 46 23  1  0  0  0  0
 47 24  1  0  0  0  0
 48 24  1  0  0  0  0
 49 25  1  0  0  0  0
M  END
