-17.3738
 OpenBabel10231816213D

 41 42  0  0  0  0  0  0  0  0999 V2000
   -4.5396   -1.7509    0.2687 C   0  0  0  0  0  0  0  0  0  0  0  0
   -3.7864   -0.6844    0.9106 N   0  0  0  0  0  0  0  0  0  0  0  0
   -4.3018   -0.1506    2.1634 C   0  0  0  0  0  0  0  0  0  0  0  0
   -2.8593    0.0454    0.1776 C   0  0  0  0  0  0  0  0  0  0  0  0
   -2.4762   -0.3359   -1.1152 C   0  0  0  0  0  0  0  0  0  0  0  0
   -1.5150    0.3856   -1.8421 C   0  0  0  0  0  0  0  0  0  0  0  0
   -0.8939    1.4982   -1.2721 C   0  0  0  0  0  0  0  0  0  0  0  0
   -1.2714    1.9029   -0.0015 C   0  0  0  0  0  0  0  0  0  0  0  0
   -2.2428    1.1878    0.7063 C   0  0  0  0  0  0  0  0  0  0  0  0
    0.0745    2.1831   -2.0352 N   0  0  0  0  0  0  0  0  0  0  0  0
    0.9826    3.0940   -1.5807 C   0  0  0  0  0  0  0  0  0  0  0  0
    1.2312    4.1078   -2.2439 O   0  0  0  0  0  0  0  0  0  0  0  0
    1.6758    2.8374   -0.4160 N   0  0  0  0  0  0  0  0  0  0  0  0
    2.2720    1.6921    0.1121 C   0  0  0  0  0  0  0  0  0  0  0  0
    2.9650    1.8290    1.1132 O   0  0  0  0  0  0  0  0  0  0  0  0
    2.0280    0.3539   -0.5731 C   0  0  0  0  0  0  0  0  0  0  0  0
    2.9259   -0.7598   -0.0811 C   0  0  0  0  0  0  0  0  0  0  0  0
    2.8341   -1.1953    1.2481 C   0  0  0  0  0  0  0  0  0  0  0  0
    3.6422   -2.2301    1.7180 C   0  0  0  0  0  0  0  0  0  0  0  0
    4.5518   -2.8450    0.8602 C   0  0  0  0  0  0  0  0  0  0  0  0
    4.6534   -2.4217   -0.4649 C   0  0  0  0  0  0  0  0  0  0  0  0
    3.8424   -1.3855   -0.9352 C   0  0  0  0  0  0  0  0  0  0  0  0
   -5.1289   -1.3691   -0.5722 H   0  0  0  0  0  0  0  0  0  0  0  0
   -3.8600   -2.5298   -0.1013 H   0  0  0  0  0  0  0  0  0  0  0  0
   -5.2210   -2.2321    0.9730 H   0  0  0  0  0  0  0  0  0  0  0  0
   -4.8033    0.8103    2.0091 H   0  0  0  0  0  0  0  0  0  0  0  0
   -5.0154   -0.8390    2.6212 H   0  0  0  0  0  0  0  0  0  0  0  0
   -3.4857   -0.0113    2.8849 H   0  0  0  0  0  0  0  0  0  0  0  0
   -2.9225   -1.2013   -1.5972 H   0  0  0  0  0  0  0  0  0  0  0  0
   -1.2388    0.0264   -2.8259 H   0  0  0  0  0  0  0  0  0  0  0  0
   -0.8626    2.7939    0.4606 H   0  0  0  0  0  0  0  0  0  0  0  0
   -2.5102    1.5628    1.6896 H   0  0  0  0  0  0  0  0  0  0  0  0
   -0.1986    2.3495   -2.9955 H   0  0  0  0  0  0  0  0  0  0  0  0
    2.1342    3.6534   -0.0396 H   0  0  0  0  0  0  0  0  0  0  0  0
    2.1412    0.4594   -1.6577 H   0  0  0  0  0  0  0  0  0  0  0  0
    1.0031    0.0415   -0.3642 H   0  0  0  0  0  0  0  0  0  0  0  0
    2.1393   -0.7020    1.9246 H   0  0  0  0  0  0  0  0  0  0  0  0
    3.5613   -2.5501    2.7536 H   0  0  0  0  0  0  0  0  0  0  0  0
    5.1822   -3.6518    1.2248 H   0  0  0  0  0  0  0  0  0  0  0  0
    5.3641   -2.9000   -1.1343 H   0  0  0  0  0  0  0  0  0  0  0  0
    3.9292   -1.0683   -1.9706 H   0  0  0  0  0  0  0  0  0  0  0  0
  1  2  1  0  0  0  0
  1 25  1  0  0  0  0
  2  3  1  0  0  0  0
  3 27  1  0  0  0  0
  3 28  1  0  0  0  0
  4  9  1  0  0  0  0
  4  2  1  0  0  0  0
  5  4  2  0  0  0  0
  6  7  2  0  0  0  0
  6  5  1  0  0  0  0
  7  8  1  0  0  0  0
  8 31  1  0  0  0  0
  8  9  2  0  0  0  0
  9 32  1  0  0  0  0
 10 11  1  0  0  0  0
 10  7  1  0  0  0  0
 11 13  1  0  0  0  0
 12 11  2  0  0  0  0
 13 34  1  0  0  0  0
 13 14  1  0  0  0  0
 14 15  2  0  0  0  0
 16 36  1  0  0  0  0
 16 17  1  0  0  0  0
 16 14  1  0  0  0  0
 17 18  2  0  0  0  0
 18 19  1  0  0  0  0
 18 37  1  0  0  0  0
 19 38  1  0  0  0  0
 20 39  1  0  0  0  0
 20 19  2  0  0  0  0
 21 20  1  0  0  0  0
 22 21  2  0  0  0  0
 22 17  1  0  0  0  0
 23  1  1  0  0  0  0
 24  1  1  0  0  0  0
 26  3  1  0  0  0  0
 29  5  1  0  0  0  0
 30  6  1  0  0  0  0
 33 10  1  0  0  0  0
 35 16  1  0  0  0  0
 40 21  1  0  0  0  0
 41 22  1  0  0  0  0
M  END
