15.8539
 OpenBabel10231816213D

 45 47  0  0  0  0  0  0  0  0999 V2000
   -2.4139    0.6367    1.8845 O   0  0  0  0  0  0  0  0  0  0  0  0
   -3.1929    1.2820    0.9663 N   0  0  0  0  0  0  0  0  0  0  0  0
   -3.1428    0.5679   -0.1772 C   0  0  0  0  0  0  0  0  0  0  0  0
   -2.2221   -0.5228   -0.0157 C   0  0  0  0  0  0  0  0  0  0  0  0
   -1.7251   -1.5053   -0.9662 C   0  0  0  0  0  0  0  0  0  0  0  0
   -2.4533   -2.1876   -1.6725 O   0  0  0  0  0  0  0  0  0  0  0  0
   -0.3620   -1.7694   -0.9712 N   0  0  0  0  0  0  0  0  0  0  0  0
    0.6473   -0.9846   -0.4556 C   0  0  0  0  0  0  0  0  0  0  0  0
    0.7216    0.3850   -0.5030 C   0  0  0  0  0  0  0  0  0  0  0  0
    1.8692    0.7874    0.1270 N   0  0  0  0  0  0  0  0  0  0  0  0
    2.2798    2.1726    0.2575 C   0  0  0  0  0  0  0  0  0  0  0  0
    2.5328   -0.3138    0.6291 C   0  0  0  0  0  0  0  0  0  0  0  0
    1.7884   -1.4274    0.2482 C   0  0  0  0  0  0  0  0  0  0  0  0
    3.7551   -0.2549    1.3974 C   0  0  0  0  0  0  0  0  0  0  0  0
    4.3688    0.7675    1.6844 O   0  0  0  0  0  0  0  0  0  0  0  0
    4.1409   -1.5127    1.7472 O   0  0  0  0  0  0  0  0  0  0  0  0
    5.3618   -1.5891    2.4903 C   0  0  0  0  0  0  0  0  0  0  0  0
    6.5522   -1.5551    1.5485 C   0  0  0  0  0  0  0  0  0  0  0  0
   -1.8730   -0.4671    1.3239 C   0  0  0  0  0  0  0  0  0  0  0  0
   -1.0530   -1.2876    2.2400 C   0  0  0  0  0  0  0  0  0  0  0  0
   -3.9358    1.0362   -1.3280 C   0  0  0  0  0  0  0  0  0  0  0  0
   -4.2410    0.2279   -2.4282 C   0  0  0  0  0  0  0  0  0  0  0  0
   -5.0070    0.7101   -3.4939 C   0  0  0  0  0  0  0  0  0  0  0  0
   -5.4936    2.0131   -3.4748 C   0  0  0  0  0  0  0  0  0  0  0  0
   -5.2217    2.8307   -2.3840 C   0  0  0  0  0  0  0  0  0  0  0  0
   -4.4560    2.3443   -1.3215 C   0  0  0  0  0  0  0  0  0  0  0  0
   -0.0986   -2.5977   -1.4867 H   0  0  0  0  0  0  0  0  0  0  0  0
    0.0693    1.1141   -0.9728 H   0  0  0  0  0  0  0  0  0  0  0  0
    1.4691    2.8213   -0.0847 H   0  0  0  0  0  0  0  0  0  0  0  0
    3.1668    2.3334   -0.3605 H   0  0  0  0  0  0  0  0  0  0  0  0
    2.4882    2.3924    1.3072 H   0  0  0  0  0  0  0  0  0  0  0  0
    2.0135   -2.4475    0.5414 H   0  0  0  0  0  0  0  0  0  0  0  0
    5.4217   -0.7900    3.2376 H   0  0  0  0  0  0  0  0  0  0  0  0
    5.3431   -2.5388    3.0335 H   0  0  0  0  0  0  0  0  0  0  0  0
    6.4798   -2.3559    0.8052 H   0  0  0  0  0  0  0  0  0  0  0  0
    6.5892   -0.6114    0.9938 H   0  0  0  0  0  0  0  0  0  0  0  0
    7.4869   -1.6673    2.1029 H   0  0  0  0  0  0  0  0  0  0  0  0
   -1.6781   -1.7048    3.0355 H   0  0  0  0  0  0  0  0  0  0  0  0
   -0.5826   -2.1330    1.7338 H   0  0  0  0  0  0  0  0  0  0  0  0
   -0.2644   -0.6864    2.7058 H   0  0  0  0  0  0  0  0  0  0  0  0
   -3.9258   -0.8046   -2.4860 H   0  0  0  0  0  0  0  0  0  0  0  0
   -5.2292    0.0570   -4.3348 H   0  0  0  0  0  0  0  0  0  0  0  0
   -6.0906    2.3856   -4.3008 H   0  0  0  0  0  0  0  0  0  0  0  0
   -5.6076    3.8460   -2.3494 H   0  0  0  0  0  0  0  0  0  0  0  0
   -4.2752    3.0033   -0.4736 H   0  0  0  0  0  0  0  0  0  0  0  0
  2  1  1  0  0  0  0
  3  4  1  0  0  0  0
  3  2  2  0  0  0  0
  4 19  2  0  0  0  0
  5  4  1  0  0  0  0
  6  5  2  0  0  0  0
  7  5  1  0  0  0  0
  7  8  1  0  0  0  0
  8 13  1  0  0  0  0
  9  8  2  0  0  0  0
  9 10  1  0  0  0  0
 10 11  1  0  0  0  0
 10 12  1  0  0  0  0
 11 31  1  0  0  0  0
 12 14  1  0  0  0  0
 13 32  1  0  0  0  0
 13 12  2  0  0  0  0
 14 15  2  0  0  0  0
 14 16  1  0  0  0  0
 16 17  1  0  0  0  0
 17 34  1  0  0  0  0
 17 33  1  0  0  0  0
 18 37  1  0  0  0  0
 18 17  1  0  0  0  0
 19  1  1  0  0  0  0
 19 20  1  0  0  0  0
 20 40  1  0  0  0  0
 20 38  1  0  0  0  0
 21 26  1  0  0  0  0
 21  3  1  0  0  0  0
 22 21  2  0  0  0  0
 23 24  2  0  0  0  0
 23 22  1  0  0  0  0
 24 25  1  0  0  0  0
 25 44  1  0  0  0  0
 25 26  2  0  0  0  0
 26 45  1  0  0  0  0
 27  7  1  0  0  0  0
 28  9  1  0  0  0  0
 29 11  1  0  0  0  0
 30 11  1  0  0  0  0
 35 18  1  0  0  0  0
 36 18  1  0  0  0  0
 39 20  1  0  0  0  0
 41 22  1  0  0  0  0
 42 23  1  0  0  0  0
 43 24  1  0  0  0  0
M  END
