-33.5975
 OpenBabel10231816213D

 24 23  0  0  1  0  0  0  0  0999 V2000
   -0.2107   -0.6098   -0.0024 C   0  0  2  0  0  0  0  0  0  0  0  0
   -1.1503   -1.7985    0.2046 C   0  0  0  0  0  0  0  0  0  0  0  0
   -2.3324   -1.7506    0.5098 O   0  0  0  0  0  0  0  0  0  0  0  0
   -0.5119   -2.9851    0.0984 O   0  0  0  0  0  0  0  0  0  0  0  0
    0.7335   -0.4873    1.1998 C   0  0  0  0  0  0  0  0  0  0  0  0
    1.8058    0.5803    0.9958 C   0  0  0  0  0  0  0  0  0  0  0  0
    2.8811    0.1432    0.0313 C   0  0  0  0  0  0  0  0  0  0  0  0
    3.0289    0.6130   -1.0819 O   0  0  0  0  0  0  0  0  0  0  0  0
    3.6886   -0.8212    0.5239 O   0  0  0  0  0  0  0  0  0  0  0  0
   -1.0238    0.5977   -0.1632 N   0  0  0  0  0  0  0  0  0  0  0  0
   -1.4273    0.9675   -1.4284 C   0  0  0  0  0  0  0  0  0  0  0  0
   -1.0080    0.4388   -2.4516 O   0  0  0  0  0  0  0  0  0  0  0  0
   -2.4309    2.0864   -1.4528 C   0  0  0  0  0  0  0  0  0  0  0  0
    0.3532   -0.7917   -0.9236 H   0  0  0  0  0  0  0  0  0  0  0  0
   -1.2060   -3.6620    0.2481 H   0  0  0  0  0  0  0  0  0  0  0  0
    0.1516   -0.2385    2.0964 H   0  0  0  0  0  0  0  0  0  0  0  0
    1.2059   -1.4568    1.3989 H   0  0  0  0  0  0  0  0  0  0  0  0
    2.2854    0.8331    1.9484 H   0  0  0  0  0  0  0  0  0  0  0  0
    1.3674    1.5105    0.6182 H   0  0  0  0  0  0  0  0  0  0  0  0
    3.4859   -1.0888    1.4396 H   0  0  0  0  0  0  0  0  0  0  0  0
   -1.6489    0.8358    0.5986 H   0  0  0  0  0  0  0  0  0  0  0  0
   -1.9906    2.9952   -1.0342 H   0  0  0  0  0  0  0  0  0  0  0  0
   -2.7242    2.2811   -2.4888 H   0  0  0  0  0  0  0  0  0  0  0  0
   -3.3222    1.8075   -0.8849 H   0  0  0  0  0  0  0  0  0  0  0  0
  1 14  1  6  0  0  0
  1  2  1  0  0  0  0
  1  5  1  0  0  0  0
  2  3  2  0  0  0  0
  4  2  1  0  0  0  0
  4 15  1  0  0  0  0
  5 17  1  0  0  0  0
  5 16  1  0  0  0  0
  6  5  1  0  0  0  0
  6 18  1  0  0  0  0
  7  9  1  0  0  0  0
  7  6  1  0  0  0  0
  8  7  2  0  0  0  0
  9 20  1  0  0  0  0
 10  1  1  0  0  0  0
 10 21  1  0  0  0  0
 11 10  1  0  0  0  0
 12 11  2  0  0  0  0
 13 11  1  0  0  0  0
 13 22  1  0  0  0  0
 13 24  1  0  0  0  0
 19  6  1  0  0  0  0
 23 13  1  0  0  0  0
M  END
