115.382
 OpenBabel10231816213D

 34 35  0  0  1  0  0  0  0  0999 V2000
   -1.2239   -0.5637   -0.4193 C   0  0  1  0  0  0  0  0  0  0  0  0
    0.1011    0.0624   -0.2986 N   0  0  0  0  0  0  0  0  0  0  0  0
    1.1721   -0.9086   -0.0430 C   0  0  0  0  0  0  0  0  0  0  0  0
    2.5328   -0.2381   -0.0130 C   0  0  0  0  0  0  0  0  0  0  0  0
    3.6779   -0.9648   -0.3700 C   0  0  0  0  0  0  0  0  0  0  0  0
    4.9432   -0.3721   -0.3129 C   0  0  0  0  0  0  0  0  0  0  0  0
    5.0762    0.9500    0.1114 C   0  0  0  0  0  0  0  0  0  0  0  0
    3.9478    1.6791    0.4782 C   0  0  0  0  0  0  0  0  0  0  0  0
    2.6875    1.0836    0.4224 C   0  0  0  0  0  0  0  0  0  0  0  0
   -1.8197   -0.9611    0.9543 C   0  0  1  0  0  0  0  0  0  0  0  0
   -1.2509   -0.1471    1.9974 O   0  0  0  0  0  0  0  0  0  0  0  0
   -3.3324   -0.6596    0.8661 C   0  0  1  0  0  0  0  0  0  0  0  0
   -3.6732    0.4725    1.6915 O   0  0  0  0  0  0  0  0  0  0  0  0
   -3.5834   -0.2625   -0.5959 C   0  0  1  0  0  0  0  0  0  0  0  0
   -4.6936    0.6213   -0.7130 O   0  0  0  0  0  0  0  0  0  0  0  0
   -2.2678    0.4260   -0.9653 C   0  0  2  0  0  0  0  0  0  0  0  0
   -2.0811    0.7240   -2.7521 S   0  0  0  0  0  0  0  0  0  0  0  0
   -1.1914   -1.4475   -1.0724 H   0  0  0  0  0  0  0  0  0  0  0  0
    0.3156    0.5468   -1.1776 H   0  0  0  0  0  0  0  0  0  0  0  0
    1.0152   -1.3976    0.9241 H   0  0  0  0  0  0  0  0  0  0  0  0
    1.1700   -1.6821   -0.8217 H   0  0  0  0  0  0  0  0  0  0  0  0
    3.5962   -2.0061   -0.7000 H   0  0  0  0  0  0  0  0  0  0  0  0
    5.8247   -0.9408   -0.5912 H   0  0  0  0  0  0  0  0  0  0  0  0
    6.0616    1.4082    0.1494 H   0  0  0  0  0  0  0  0  0  0  0  0
    4.0494    2.7073    0.8099 H   0  0  0  0  0  0  0  0  0  0  0  0
    1.8229    1.6749    0.7155 H   0  0  0  0  0  0  0  0  0  0  0  0
   -1.6147   -2.0113    1.1761 H   0  0  0  0  0  0  0  0  0  0  0  0
   -0.5140    0.3374    1.5609 H   0  0  0  0  0  0  0  0  0  0  0  0
   -3.9475   -1.5090    1.1801 H   0  0  0  0  0  0  0  0  0  0  0  0
   -2.8739    0.6347    2.2423 H   0  0  0  0  0  0  0  0  0  0  0  0
   -3.7615   -1.1492   -1.2158 H   0  0  0  0  0  0  0  0  0  0  0  0
   -4.7283    1.1059    0.1408 H   0  0  0  0  0  0  0  0  0  0  0  0
   -2.1966    1.4000   -0.4622 H   0  0  0  0  0  0  0  0  0  0  0  0
   -3.2400    1.3871   -2.8965 H   0  0  0  0  0  0  0  0  0  0  0  0
  1 18  1  6  0  0  0
  1  2  1  0  0  0  0
  1 10  1  0  0  0  0
  2  3  1  0  0  0  0
  3  4  1  0  0  0  0
  3 20  1  0  0  0  0
  4  9  2  0  0  0  0
  5  6  2  0  0  0  0
  5  4  1  0  0  0  0
  6  7  1  0  0  0  0
  7 24  1  0  0  0  0
  7  8  2  0  0  0  0
  8 25  1  0  0  0  0
  9  8  1  0  0  0  0
  9 26  1  0  0  0  0
 10 27  1  1  0  0  0
 10 11  1  0  0  0  0
 12 10  1  0  0  0  0
 12 29  1  1  0  0  0
 12 13  1  0  0  0  0
 13 30  1  0  0  0  0
 14 31  1  6  0  0  0
 14 12  1  0  0  0  0
 15 14  1  0  0  0  0
 15 32  1  0  0  0  0
 16 14  1  0  0  0  0
 16 33  1  1  0  0  0
 16  1  1  0  0  0  0
 17 16  1  0  0  0  0
 19  2  1  0  0  0  0
 21  3  1  0  0  0  0
 22  5  1  0  0  0  0
 23  6  1  0  0  0  0
 28 11  1  0  0  0  0
 34 17  1  0  0  0  0
M  END
