33.0779
 OpenBabel10231816213D

 61 65  0  0  0  0  0  0  0  0999 V2000
    7.7656    2.7840   -1.3935 N   0  0  0  0  0  0  0  0  0  0  0  0
    7.3947    1.7600   -2.1850 C   0  0  0  0  0  0  0  0  0  0  0  0
    6.5915    0.7091   -1.7674 C   0  0  0  0  0  0  0  0  0  0  0  0
    6.0888    0.6922   -0.4633 C   0  0  0  0  0  0  0  0  0  0  0  0
    6.5006    1.7469    0.3767 C   0  0  0  0  0  0  0  0  0  0  0  0
    7.3126    2.7411   -0.1252 C   0  0  0  0  0  0  0  0  0  0  0  0
    5.2491   -0.3328   -0.0226 N   0  0  0  0  0  0  0  0  0  0  0  0
    4.8358   -0.3945    1.3785 C   0  0  0  0  0  0  0  0  0  0  0  0
    3.5955    0.4769    1.6143 C   0  0  0  0  0  0  0  0  0  0  0  0
    2.4509    0.1642    0.6312 C   0  0  0  0  0  0  0  0  0  0  0  0
    2.9851    0.1249   -0.8092 C   0  0  0  0  0  0  0  0  0  0  0  0
    4.1932   -0.8094   -0.9207 C   0  0  0  0  0  0  0  0  0  0  0  0
    1.7644   -1.1511    0.9739 C   0  0  0  0  0  0  0  0  0  0  0  0
    2.2588   -1.9256    1.8204 O   0  0  0  0  0  0  0  0  0  0  0  0
    0.6146   -1.4818    0.2934 N   0  0  0  0  0  0  0  0  0  0  0  0
   -0.2962   -0.5196   -0.3470 C   0  0  0  0  0  0  0  0  0  0  0  0
   -1.5068   -0.2545    0.5527 C   0  0  0  0  0  0  0  0  0  0  0  0
   -2.1874   -1.5071    0.9671 N   0  0  0  0  0  0  0  0  0  0  0  0
   -1.2245   -2.4838    1.5690 C   0  0  0  0  0  0  0  0  0  0  0  0
   -0.0452   -2.7403    0.6294 C   0  0  0  0  0  0  0  0  0  0  0  0
   -3.2391   -2.2412   -0.1494 S   0  0  0  0  0  0  0  0  0  0  0  0
   -3.8708   -3.3389    0.5271 O   0  0  0  0  0  0  0  0  0  0  0  0
   -2.4937   -2.4532   -1.3796 O   0  0  0  0  0  0  0  0  0  0  0  0
   -4.4347   -0.9731   -0.4530 C   0  0  0  0  0  0  0  0  0  0  0  0
   -5.2741   -0.5247    0.5679 C   0  0  0  0  0  0  0  0  0  0  0  0
   -6.2175    0.4814    0.3039 C   0  0  0  0  0  0  0  0  0  0  0  0
   -6.3091    1.0417   -1.0005 C   0  0  0  0  0  0  0  0  0  0  0  0
   -5.4449    0.5799   -2.0033 C   0  0  0  0  0  0  0  0  0  0  0  0
   -4.5075   -0.4215   -1.7284 C   0  0  0  0  0  0  0  0  0  0  0  0
   -7.2584    2.0420   -1.2589 C   0  0  0  0  0  0  0  0  0  0  0  0
   -8.1086    2.4847   -0.2396 C   0  0  0  0  0  0  0  0  0  0  0  0
   -8.0228    1.9422    1.0357 C   0  0  0  0  0  0  0  0  0  0  0  0
   -7.0817    0.9447    1.3077 C   0  0  0  0  0  0  0  0  0  0  0  0
   -9.2678    3.7119   -0.5690 Cl  0  0  0  0  0  0  0  0  0  0  0  0
    7.7742    1.7968   -3.2027 H   0  0  0  0  0  0  0  0  0  0  0  0
    6.3818   -0.0937   -2.4648 H   0  0  0  0  0  0  0  0  0  0  0  0
    6.1784    1.8117    1.4007 H   0  0  0  0  0  0  0  0  0  0  0  0
    7.6241    3.5655    0.5086 H   0  0  0  0  0  0  0  0  0  0  0  0
    5.6581   -0.1204    2.0463 H   0  0  0  0  0  0  0  0  0  0  0  0
    4.6076   -1.4386    1.6129 H   0  0  0  0  0  0  0  0  0  0  0  0
    3.8578    1.5352    1.5073 H   0  0  0  0  0  0  0  0  0  0  0  0
    3.2588    0.3352    2.6464 H   0  0  0  0  0  0  0  0  0  0  0  0
    1.7006    0.9609    0.7380 H   0  0  0  0  0  0  0  0  0  0  0  0
    2.2128   -0.2053   -1.5081 H   0  0  0  0  0  0  0  0  0  0  0  0
    3.2750    1.1399   -1.1086 H   0  0  0  0  0  0  0  0  0  0  0  0
    4.5218   -0.8855   -1.9569 H   0  0  0  0  0  0  0  0  0  0  0  0
    3.9071   -1.8210   -0.6114 H   0  0  0  0  0  0  0  0  0  0  0  0
   -0.6094   -0.9686   -1.2907 H   0  0  0  0  0  0  0  0  0  0  0  0
    0.2034    0.4154   -0.5821 H   0  0  0  0  0  0  0  0  0  0  0  0
   -1.1885    0.2560    1.4700 H   0  0  0  0  0  0  0  0  0  0  0  0
   -2.2256    0.3928    0.0500 H   0  0  0  0  0  0  0  0  0  0  0  0
   -0.8715   -2.0713    2.5218 H   0  0  0  0  0  0  0  0  0  0  0  0
   -1.7597   -3.4125    1.7822 H   0  0  0  0  0  0  0  0  0  0  0  0
   -0.3852   -3.1947   -0.3020 H   0  0  0  0  0  0  0  0  0  0  0  0
    0.6672   -3.4289    1.0950 H   0  0  0  0  0  0  0  0  0  0  0  0
   -5.1989   -0.9623    1.5613 H   0  0  0  0  0  0  0  0  0  0  0  0
   -5.4967    0.9897   -3.0108 H   0  0  0  0  0  0  0  0  0  0  0  0
   -3.8439   -0.7711   -2.5214 H   0  0  0  0  0  0  0  0  0  0  0  0
   -7.3433    2.4811   -2.2524 H   0  0  0  0  0  0  0  0  0  0  0  0
   -8.6898    2.2924    1.8259 H   0  0  0  0  0  0  0  0  0  0  0  0
   -7.0267    0.5267    2.3123 H   0  0  0  0  0  0  0  0  0  0  0  0
  1  6  2  0  0  0  0
  2  3  2  0  0  0  0
  2  1  1  0  0  0  0
  3  4  1  0  0  0  0
  4  7  1  0  0  0  0
  4  5  2  0  0  0  0
  5 37  1  0  0  0  0
  6  5  1  0  0  0  0
  6 38  1  0  0  0  0
  7  8  1  0  0  0  0
  8 40  1  0  0  0  0
  8  9  1  0  0  0  0
  8 39  1  0  0  0  0
  9 42  1  0  0  0  0
 10 43  1  0  0  0  0
 10 13  1  0  0  0  0
 10  9  1  0  0  0  0
 11 10  1  0  0  0  0
 12 11  1  0  0  0  0
 12 47  1  0  0  0  0
 12  7  1  0  0  0  0
 13 14  2  0  0  0  0
 15 20  1  0  0  0  0
 15 13  1  0  0  0  0
 16 15  1  0  0  0  0
 16 17  1  0  0  0  0
 17 18  1  0  0  0  0
 17 50  1  0  0  0  0
 18 19  1  0  0  0  0
 19 53  1  0  0  0  0
 19 52  1  0  0  0  0
 20 55  1  0  0  0  0
 20 19  1  0  0  0  0
 21 22  2  0  0  0  0
 21 18  1  0  0  0  0
 23 21  2  0  0  0  0
 24 21  1  0  0  0  0
 24 25  2  0  0  0  0
 25 56  1  0  0  0  0
 26 25  1  0  0  0  0
 26 33  2  0  0  0  0
 27 26  1  0  0  0  0
 28 29  2  0  0  0  0
 28 27  1  0  0  0  0
 29 24  1  0  0  0  0
 30 27  2  0  0  0  0
 30 31  1  0  0  0  0
 31 32  2  0  0  0  0
 32 33  1  0  0  0  0
 32 60  1  0  0  0  0
 33 61  1  0  0  0  0
 34 31  1  0  0  0  0
 35  2  1  0  0  0  0
 36  3  1  0  0  0  0
 41  9  1  0  0  0  0
 44 11  1  0  0  0  0
 45 11  1  0  0  0  0
 46 12  1  0  0  0  0
 48 16  1  0  0  0  0
 49 16  1  0  0  0  0
 51 17  1  0  0  0  0
 54 20  1  0  0  0  0
 57 28  1  0  0  0  0
 58 29  1  0  0  0  0
 59 30  1  0  0  0  0
M  END
