50.9139
 OpenBabel10231816213D

 36 36  0  0  1  0  0  0  0  0999 V2000
    4.2495    0.6309    0.9547 C   0  0  0  0  0  0  0  0  0  0  0  0
    4.8796    0.6249   -0.4078 C   0  0  0  0  0  0  0  0  0  0  0  0
    3.4714    1.1335   -0.2303 C   0  0  0  0  0  0  0  0  0  0  0  0
    2.3831    0.3604   -0.8151 N   0  0  0  0  0  0  0  0  0  0  0  0
    1.2458    0.1454    0.1065 C   0  0  0  0  0  0  0  0  0  0  0  0
    0.2210   -0.7688   -0.6081 C   0  0  0  0  0  0  0  0  0  0  0  0
   -1.0260   -1.1666    0.2534 C   0  0  1  0  0  0  0  0  0  0  0  0
   -0.6563   -2.2538    1.2043 N   0  0  0  0  0  0  0  0  0  0  0  0
   -1.7163   -0.0173    1.0113 C   0  0  0  0  0  0  0  0  0  0  0  0
   -2.2486    1.1382    0.1511 C   0  0  0  0  0  0  0  0  0  0  0  0
   -3.2915    0.7524   -0.9009 C   0  0  0  0  0  0  0  0  0  0  0  0
   -4.5901    0.2364   -0.3037 C   0  0  0  0  0  0  0  0  0  0  0  0
   -0.2084   -0.1666   -1.8213 O   0  0  0  0  0  0  0  0  0  0  0  0
    0.9057   -1.9832   -0.9661 O   0  0  0  0  0  0  0  0  0  0  0  0
    3.9861   -0.3226    1.3922 H   0  0  0  0  0  0  0  0  0  0  0  0
    4.5926    1.3680    1.6705 H   0  0  0  0  0  0  0  0  0  0  0  0
    5.6531    1.3524   -0.6204 H   0  0  0  0  0  0  0  0  0  0  0  0
    5.0354   -0.3343   -0.8857 H   0  0  0  0  0  0  0  0  0  0  0  0
    3.3328    2.2106   -0.2944 H   0  0  0  0  0  0  0  0  0  0  0  0
    2.6862   -0.5707   -1.1246 H   0  0  0  0  0  0  0  0  0  0  0  0
    0.8063    1.1169    0.3525 H   0  0  0  0  0  0  0  0  0  0  0  0
    1.5934   -0.3395    1.0246 H   0  0  0  0  0  0  0  0  0  0  0  0
   -1.7570   -1.6180   -0.4289 H   0  0  0  0  0  0  0  0  0  0  0  0
   -1.5003   -2.7858    1.4268 H   0  0  0  0  0  0  0  0  0  0  0  0
   -0.3592   -1.8448    2.0919 H   0  0  0  0  0  0  0  0  0  0  0  0
   -1.0196    0.4060    1.7471 H   0  0  0  0  0  0  0  0  0  0  0  0
   -2.5467   -0.4253    1.6019 H   0  0  0  0  0  0  0  0  0  0  0  0
   -1.4141    1.6395   -0.3499 H   0  0  0  0  0  0  0  0  0  0  0  0
   -2.6861    1.8893    0.8205 H   0  0  0  0  0  0  0  0  0  0  0  0
   -2.8889    0.0080   -1.5944 H   0  0  0  0  0  0  0  0  0  0  0  0
   -3.5180    1.6421   -1.5019 H   0  0  0  0  0  0  0  0  0  0  0  0
   -5.0297    0.9754    0.3735 H   0  0  0  0  0  0  0  0  0  0  0  0
   -5.3142    0.0359   -1.0999 H   0  0  0  0  0  0  0  0  0  0  0  0
   -4.4372   -0.6947    0.2496 H   0  0  0  0  0  0  0  0  0  0  0  0
    0.6025    0.2616   -2.1591 H   0  0  0  0  0  0  0  0  0  0  0  0
    0.5638   -2.6357   -0.3200 H   0  0  0  0  0  0  0  0  0  0  0  0
  1 15  1  0  0  0  0
  1 16  1  0  0  0  0
  2  3  1  0  0  0  0
  2  1  1  0  0  0  0
  3  1  1  0  0  0  0
  4  3  1  0  0  0  0
  4  5  1  0  0  0  0
  5 21  1  0  0  0  0
  5 22  1  0  0  0  0
  6  5  1  0  0  0  0
  6  7  1  0  0  0  0
  7 23  1  6  0  0  0
  7  9  1  0  0  0  0
  7  8  1  0  0  0  0
  8 24  1  0  0  0  0
  8 25  1  0  0  0  0
  9 27  1  0  0  0  0
  9 26  1  0  0  0  0
 10 29  1  0  0  0  0
 10  9  1  0  0  0  0
 11 12  1  0  0  0  0
 11 10  1  0  0  0  0
 12 34  1  0  0  0  0
 12 32  1  0  0  0  0
 13  6  1  0  0  0  0
 14  6  1  0  0  0  0
 14 36  1  0  0  0  0
 17  2  1  0  0  0  0
 18  2  1  0  0  0  0
 19  3  1  0  0  0  0
 20  4  1  0  0  0  0
 28 10  1  0  0  0  0
 30 11  1  0  0  0  0
 31 11  1  0  0  0  0
 33 12  1  0  0  0  0
 35 13  1  0  0  0  0
M  END
