-40.1175
 OpenBabel10231816213D

 24 23  0  0  1  0  0  0  0  0999 V2000
   -0.4742   -1.2895   -0.4837 C   0  0  2  0  0  0  0  0  0  0  0  0
   -0.9007   -2.0150    0.7893 C   0  0  0  0  0  0  0  0  0  0  0  0
   -0.7165   -3.2276    0.9225 O   0  0  0  0  0  0  0  0  0  0  0  0
   -1.3722   -1.2864    1.8119 O   0  0  0  0  0  0  0  0  0  0  0  0
    1.0168   -0.9391   -0.4398 C   0  0  0  0  0  0  0  0  0  0  0  0
    1.4064    0.1206    0.5923 C   0  0  0  0  0  0  0  0  0  0  0  0
    2.8967    0.2297    0.7350 C   0  0  0  0  0  0  0  0  0  0  0  0
    3.7378   -0.4646    0.1884 O   0  0  0  0  0  0  0  0  0  0  0  0
    3.2460    1.2246    1.5767 O   0  0  0  0  0  0  0  0  0  0  0  0
   -1.3313   -0.2102   -0.9894 N   0  0  0  0  0  0  0  0  0  0  0  0
   -1.6784    0.9464   -0.3492 C   0  0  0  0  0  0  0  0  0  0  0  0
   -1.4577    1.1247    0.8440 O   0  0  0  0  0  0  0  0  0  0  0  0
   -2.3671    1.9800   -1.1984 C   0  0  0  0  0  0  0  0  0  0  0  0
   -0.5755   -2.0747   -1.2575 H   0  0  0  0  0  0  0  0  0  0  0  0
   -1.4259   -0.3238    1.6014 H   0  0  0  0  0  0  0  0  0  0  0  0
    1.5775   -1.8624   -0.2338 H   0  0  0  0  0  0  0  0  0  0  0  0
    1.3369   -0.6069   -1.4356 H   0  0  0  0  0  0  0  0  0  0  0  0
    0.9951   -0.1241    1.5740 H   0  0  0  0  0  0  0  0  0  0  0  0
    1.0286    1.1028    0.2973 H   0  0  0  0  0  0  0  0  0  0  0  0
    4.2259    1.2120    1.6124 H   0  0  0  0  0  0  0  0  0  0  0  0
   -1.5607   -0.2735   -1.9707 H   0  0  0  0  0  0  0  0  0  0  0  0
   -1.7073    2.8452   -1.2954 H   0  0  0  0  0  0  0  0  0  0  0  0
   -2.6188    1.6094   -2.1972 H   0  0  0  0  0  0  0  0  0  0  0  0
   -3.2813    2.3024   -0.6943 H   0  0  0  0  0  0  0  0  0  0  0  0
  1 14  1  6  0  0  0
  1  5  1  0  0  0  0
  1  2  1  0  0  0  0
  2  3  2  0  0  0  0
  2  4  1  0  0  0  0
  5 16  1  0  0  0  0
  5  6  1  0  0  0  0
  6  7  1  0  0  0  0
  6 18  1  0  0  0  0
  7  9  1  0  0  0  0
  8  7  2  0  0  0  0
  9 20  1  0  0  0  0
 10  1  1  0  0  0  0
 10 11  1  0  0  0  0
 11 12  2  0  0  0  0
 13 24  1  0  0  0  0
 13 11  1  0  0  0  0
 15  4  1  0  0  0  0
 17  5  1  0  0  0  0
 19  6  1  0  0  0  0
 21 10  1  0  0  0  0
 22 13  1  0  0  0  0
 23 13  1  0  0  0  0
M  END
