47.191
 OpenBabel10231816213D

 36 36  0  0  1  0  0  0  0  0999 V2000
    4.2410    1.4116    0.6735 C   0  0  0  0  0  0  0  0  0  0  0  0
    4.3441    1.3873   -0.8210 C   0  0  0  0  0  0  0  0  0  0  0  0
    2.9942    1.4376   -0.1622 C   0  0  0  0  0  0  0  0  0  0  0  0
    2.1321    0.2570   -0.2579 N   0  0  0  0  0  0  0  0  0  0  0  0
    1.3842   -0.0184    0.9787 C   0  0  0  0  0  0  0  0  0  0  0  0
    0.5850   -1.3444    0.8743 C   0  0  0  0  0  0  0  0  0  0  0  0
   -0.5288   -1.3248   -0.2295 C   0  0  1  0  0  0  0  0  0  0  0  0
   -0.9725   -2.7350   -0.4488 N   0  0  0  0  0  0  0  0  0  0  0  0
   -1.7100   -0.4041    0.1434 C   0  0  0  0  0  0  0  0  0  0  0  0
   -2.7895   -0.3153   -0.9418 C   0  0  0  0  0  0  0  0  0  0  0  0
   -3.9376    0.6277   -0.5668 C   0  0  0  0  0  0  0  0  0  0  0  0
   -3.5455    2.0974   -0.5757 C   0  0  0  0  0  0  0  0  0  0  0  0
    1.4926   -2.4106    0.5829 O   0  0  0  0  0  0  0  0  0  0  0  0
    0.0220   -1.6841    2.1348 O   0  0  0  0  0  0  0  0  0  0  0  0
    4.5212    2.3237    1.1904 H   0  0  0  0  0  0  0  0  0  0  0  0
    4.4883    0.5089    1.2156 H   0  0  0  0  0  0  0  0  0  0  0  0
    4.6921    2.2809   -1.3256 H   0  0  0  0  0  0  0  0  0  0  0  0
    4.6676    0.4637   -1.2907 H   0  0  0  0  0  0  0  0  0  0  0  0
    2.4604    2.3859   -0.2208 H   0  0  0  0  0  0  0  0  0  0  0  0
    2.6707   -0.5851   -0.4746 H   0  0  0  0  0  0  0  0  0  0  0  0
    2.0903   -0.1136    1.8168 H   0  0  0  0  0  0  0  0  0  0  0  0
    0.7197    0.8136    1.2262 H   0  0  0  0  0  0  0  0  0  0  0  0
   -0.0893   -0.9969   -1.1782 H   0  0  0  0  0  0  0  0  0  0  0  0
   -1.4696   -3.0297    0.3929 H   0  0  0  0  0  0  0  0  0  0  0  0
   -1.6597   -2.7542   -1.2031 H   0  0  0  0  0  0  0  0  0  0  0  0
   -1.3231    0.6005    0.3329 H   0  0  0  0  0  0  0  0  0  0  0  0
   -2.1738   -0.7448    1.0774 H   0  0  0  0  0  0  0  0  0  0  0  0
   -3.2256   -1.3067   -1.1098 H   0  0  0  0  0  0  0  0  0  0  0  0
   -2.3425    0.0034   -1.8909 H   0  0  0  0  0  0  0  0  0  0  0  0
   -4.7536    0.4856   -1.2888 H   0  0  0  0  0  0  0  0  0  0  0  0
   -4.3375    0.3599    0.4178 H   0  0  0  0  0  0  0  0  0  0  0  0
   -4.4224    2.7201   -0.3752 H   0  0  0  0  0  0  0  0  0  0  0  0
   -3.1398    2.3890   -1.5493 H   0  0  0  0  0  0  0  0  0  0  0  0
   -2.7986    2.3204    0.1914 H   0  0  0  0  0  0  0  0  0  0  0  0
    0.9388   -3.0262    0.0535 H   0  0  0  0  0  0  0  0  0  0  0  0
    0.7751   -2.0804    2.6080 H   0  0  0  0  0  0  0  0  0  0  0  0
  1 15  1  0  0  0  0
  1 16  1  0  0  0  0
  2  3  1  0  0  0  0
  2  1  1  0  0  0  0
  3  1  1  0  0  0  0
  4  3  1  0  0  0  0
  4  5  1  0  0  0  0
  5 22  1  0  0  0  0
  5 21  1  0  0  0  0
  6  5  1  0  0  0  0
  6 14  1  0  0  0  0
  7 23  1  6  0  0  0
  7  9  1  0  0  0  0
  7  6  1  0  0  0  0
  8  7  1  0  0  0  0
  8 24  1  0  0  0  0
  9 26  1  0  0  0  0
  9 27  1  0  0  0  0
 10 11  1  0  0  0  0
 10  9  1  0  0  0  0
 11 31  1  0  0  0  0
 12 11  1  0  0  0  0
 12 32  1  0  0  0  0
 12 34  1  0  0  0  0
 13  6  1  0  0  0  0
 14 36  1  0  0  0  0
 17  2  1  0  0  0  0
 18  2  1  0  0  0  0
 19  3  1  0  0  0  0
 20  4  1  0  0  0  0
 25  8  1  0  0  0  0
 28 10  1  0  0  0  0
 29 10  1  0  0  0  0
 30 11  1  0  0  0  0
 33 12  1  0  0  0  0
 35 13  1  0  0  0  0
M  END
