122.546
 OpenBabel10231816213D

 34 35  0  0  1  0  0  0  0  0999 V2000
   -0.7352   -0.5769    0.2993 C   0  0  1  0  0  0  0  0  0  0  0  0
    0.0420   -0.3140    1.5318 N   0  0  0  0  0  0  0  0  0  0  0  0
    1.0316    0.7641    1.4418 C   0  0  0  0  0  0  0  0  0  0  0  0
    2.1591    0.5545    0.4572 C   0  0  0  0  0  0  0  0  0  0  0  0
    2.6834   -0.7082    0.1485 C   0  0  0  0  0  0  0  0  0  0  0  0
    3.7248   -0.8471   -0.7686 C   0  0  0  0  0  0  0  0  0  0  0  0
    4.2764    0.2816   -1.3743 C   0  0  0  0  0  0  0  0  0  0  0  0
    3.7878    1.5439   -1.0610 C   0  0  0  0  0  0  0  0  0  0  0  0
    2.7439    1.6837   -0.1479 C   0  0  0  0  0  0  0  0  0  0  0  0
   -1.8706   -1.5844    0.6655 C   0  0  1  0  0  0  0  0  0  0  0  0
   -2.2021   -1.5049    2.0659 O   0  0  0  0  0  0  0  0  0  0  0  0
   -3.1104   -1.1779   -0.1463 C   0  0  1  0  0  0  0  0  0  0  0  0
   -4.0898   -0.5555    0.7073 O   0  0  0  0  0  0  0  0  0  0  0  0
   -2.6126   -0.1267   -1.1352 C   0  0  1  0  0  0  0  0  0  0  0  0
   -3.6624    0.7659   -1.5024 O   0  0  0  0  0  0  0  0  0  0  0  0
   -1.5106    0.5928   -0.3482 C   0  0  2  0  0  0  0  0  0  0  0  0
   -0.5606    1.6444   -1.4990 S   0  0  0  0  0  0  0  0  0  0  0  0
   -0.1016   -1.0587   -0.4574 H   0  0  0  0  0  0  0  0  0  0  0  0
    0.5237   -1.1664    1.8192 H   0  0  0  0  0  0  0  0  0  0  0  0
    1.4842    0.8787    2.4321 H   0  0  0  0  0  0  0  0  0  0  0  0
    0.5161    1.7105    1.2505 H   0  0  0  0  0  0  0  0  0  0  0  0
    2.2784   -1.6110    0.6048 H   0  0  0  0  0  0  0  0  0  0  0  0
    4.1030   -1.8354   -1.0163 H   0  0  0  0  0  0  0  0  0  0  0  0
    5.0850    0.1718   -2.0915 H   0  0  0  0  0  0  0  0  0  0  0  0
    4.2143    2.4260   -1.5365 H   0  0  0  0  0  0  0  0  0  0  0  0
    2.3689    2.6754    0.0717 H   0  0  0  0  0  0  0  0  0  0  0  0
   -1.5536   -2.6112    0.4509 H   0  0  0  0  0  0  0  0  0  0  0  0
   -1.5257   -0.8979    2.4433 H   0  0  0  0  0  0  0  0  0  0  0  0
   -3.5870   -2.0247   -0.6480 H   0  0  0  0  0  0  0  0  0  0  0  0
   -3.8571   -0.8616    1.6127 H   0  0  0  0  0  0  0  0  0  0  0  0
   -2.2183   -0.6121   -2.0368 H   0  0  0  0  0  0  0  0  0  0  0  0
   -4.2643    0.7791   -0.7260 H   0  0  0  0  0  0  0  0  0  0  0  0
   -1.9446    1.2464    0.4177 H   0  0  0  0  0  0  0  0  0  0  0  0
   -1.6164    2.3558   -1.9246 H   0  0  0  0  0  0  0  0  0  0  0  0
  1 18  1  6  0  0  0
  1 10  1  0  0  0  0
  1  2  1  0  0  0  0
  2 19  1  0  0  0  0
  3  2  1  0  0  0  0
  3 20  1  0  0  0  0
  4  3  1  0  0  0  0
  5  4  1  0  0  0  0
  5 22  1  0  0  0  0
  6  5  2  0  0  0  0
  7  8  2  0  0  0  0
  7  6  1  0  0  0  0
  8  9  1  0  0  0  0
  9 26  1  0  0  0  0
  9  4  2  0  0  0  0
 10 27  1  6  0  0  0
 10 11  1  0  0  0  0
 11 28  1  0  0  0  0
 12 29  1  6  0  0  0
 12 10  1  0  0  0  0
 12 13  1  0  0  0  0
 13 30  1  0  0  0  0
 14 31  1  6  0  0  0
 14 16  1  0  0  0  0
 14 12  1  0  0  0  0
 15 14  1  0  0  0  0
 15 32  1  0  0  0  0
 16  1  1  0  0  0  0
 16 33  1  1  0  0  0
 17 16  1  0  0  0  0
 21  3  1  0  0  0  0
 23  6  1  0  0  0  0
 24  7  1  0  0  0  0
 25  8  1  0  0  0  0
 34 17  1  0  0  0  0
M  END
