61.0687
 OpenBabel10231816213D

 36 36  0  0  1  0  0  0  0  0999 V2000
    5.0778    0.1732   -0.3797 C   0  0  0  0  0  0  0  0  0  0  0  0
    4.7087   -0.0327    1.0597 C   0  0  0  0  0  0  0  0  0  0  0  0
    3.6723   -0.1960   -0.0127 C   0  0  0  0  0  0  0  0  0  0  0  0
    2.6684    0.8493   -0.1749 N   0  0  0  0  0  0  0  0  0  0  0  0
    1.6168    0.7942    0.8396 C   0  0  0  0  0  0  0  0  0  0  0  0
    0.3952   -0.1271    0.5697 C   0  0  0  0  0  0  0  0  0  0  0  0
   -0.3303    0.2483   -0.7736 C   0  0  1  0  0  0  0  0  0  0  0  0
    0.5334   -0.1238   -1.9192 N   0  0  0  0  0  0  0  0  0  0  0  0
   -1.7137   -0.4509   -0.8771 C   0  0  0  0  0  0  0  0  0  0  0  0
   -2.8414    0.3810   -0.2341 C   0  0  0  0  0  0  0  0  0  0  0  0
   -4.1502   -0.4092   -0.1348 C   0  0  0  0  0  0  0  0  0  0  0  0
   -5.2836    0.4146    0.4655 C   0  0  0  0  0  0  0  0  0  0  0  0
   -0.4145   -0.0293    1.7118 O   0  0  0  0  0  0  0  0  0  0  0  0
    0.7402   -1.5120    0.4808 O   0  0  0  0  0  0  0  0  0  0  0  0
    5.6826   -0.5749   -0.8739 H   0  0  0  0  0  0  0  0  0  0  0  0
    5.2419    1.1886   -0.7254 H   0  0  0  0  0  0  0  0  0  0  0  0
    4.6306    0.8412    1.6966 H   0  0  0  0  0  0  0  0  0  0  0  0
    5.0578   -0.9258    1.5621 H   0  0  0  0  0  0  0  0  0  0  0  0
    3.3512   -1.2100   -0.2478 H   0  0  0  0  0  0  0  0  0  0  0  0
    2.2212    0.7677   -1.1010 H   0  0  0  0  0  0  0  0  0  0  0  0
    1.2286    1.8143    0.9598 H   0  0  0  0  0  0  0  0  0  0  0  0
    2.0392    0.5364    1.8180 H   0  0  0  0  0  0  0  0  0  0  0  0
   -0.4831    1.3314   -0.8114 H   0  0  0  0  0  0  0  0  0  0  0  0
    0.0635    0.0338   -2.8013 H   0  0  0  0  0  0  0  0  0  0  0  0
    0.7388   -1.1271   -1.8466 H   0  0  0  0  0  0  0  0  0  0  0  0
   -1.6702   -1.4481   -0.4191 H   0  0  0  0  0  0  0  0  0  0  0  0
   -1.9728   -0.6117   -1.9298 H   0  0  0  0  0  0  0  0  0  0  0  0
   -3.0028    1.2776   -0.8443 H   0  0  0  0  0  0  0  0  0  0  0  0
   -2.5619    0.7336    0.7627 H   0  0  0  0  0  0  0  0  0  0  0  0
   -3.9954   -1.3014    0.4833 H   0  0  0  0  0  0  0  0  0  0  0  0
   -4.4470   -0.7536   -1.1324 H   0  0  0  0  0  0  0  0  0  0  0  0
   -5.4993    1.2981   -0.1441 H   0  0  0  0  0  0  0  0  0  0  0  0
   -6.2011   -0.1821    0.5241 H   0  0  0  0  0  0  0  0  0  0  0  0
   -5.0399    0.7496    1.4793 H   0  0  0  0  0  0  0  0  0  0  0  0
   -1.1173   -0.6736    1.5931 H   0  0  0  0  0  0  0  0  0  0  0  0
    1.0564   -1.7438    1.3770 H   0  0  0  0  0  0  0  0  0  0  0  0
  1  3  1  0  0  0  0
  1  2  1  0  0  0  0
  2 18  1  0  0  0  0
  2 17  1  0  0  0  0
  3  2  1  0  0  0  0
  4  3  1  0  0  0  0
  4  5  1  0  0  0  0
  5 21  1  0  0  0  0
  5 22  1  0  0  0  0
  6  5  1  0  0  0  0
  6 13  1  0  0  0  0
  7 23  1  6  0  0  0
  7  6  1  0  0  0  0
  8 25  1  0  0  0  0
  8  7  1  0  0  0  0
  9  7  1  0  0  0  0
  9 26  1  0  0  0  0
  9 10  1  0  0  0  0
 10 11  1  0  0  0  0
 10 29  1  0  0  0  0
 11 12  1  0  0  0  0
 11 30  1  0  0  0  0
 12 33  1  0  0  0  0
 12 34  1  0  0  0  0
 14  6  1  0  0  0  0
 14 36  1  0  0  0  0
 15  1  1  0  0  0  0
 16  1  1  0  0  0  0
 19  3  1  0  0  0  0
 20  4  1  0  0  0  0
 24  8  1  0  0  0  0
 27  9  1  0  0  0  0
 28 10  1  0  0  0  0
 31 11  1  0  0  0  0
 32 12  1  0  0  0  0
 35 13  1  0  0  0  0
M  END
