54.7807
 OpenBabel10231816213D

 36 36  0  0  1  0  0  0  0  0999 V2000
    3.8485    1.8535   -0.5296 C   0  0  0  0  0  0  0  0  0  0  0  0
    4.1219    0.4345   -0.9338 C   0  0  0  0  0  0  0  0  0  0  0  0
    2.7080    0.9199   -0.7981 C   0  0  0  0  0  0  0  0  0  0  0  0
    1.8652    0.4925    0.3157 N   0  0  0  0  0  0  0  0  0  0  0  0
    1.7247   -0.9663    0.3948 C   0  0  0  0  0  0  0  0  0  0  0  0
    0.6346   -1.4217    1.3880 C   0  0  0  0  0  0  0  0  0  0  0  0
   -0.7860   -0.8185    1.1196 C   0  0  1  0  0  0  0  0  0  0  0  0
   -0.7952    0.5944    1.5696 N   0  0  0  0  0  0  0  0  0  0  0  0
   -1.2248   -1.0341   -0.3442 C   0  0  0  0  0  0  0  0  0  0  0  0
   -2.6858   -0.6760   -0.6380 C   0  0  0  0  0  0  0  0  0  0  0  0
   -2.8703    0.7759   -1.0859 C   0  0  0  0  0  0  0  0  0  0  0  0
   -4.3366    1.1205   -1.3031 C   0  0  0  0  0  0  0  0  0  0  0  0
    0.5726   -2.8386    1.3525 O   0  0  0  0  0  0  0  0  0  0  0  0
    1.0242   -1.0350    2.7117 O   0  0  0  0  0  0  0  0  0  0  0  0
    4.0711    2.1361    0.4934 H   0  0  0  0  0  0  0  0  0  0  0  0
    4.0434    2.6368   -1.2558 H   0  0  0  0  0  0  0  0  0  0  0  0
    4.5197   -0.2401   -0.1847 H   0  0  0  0  0  0  0  0  0  0  0  0
    4.4824    0.2353   -1.9354 H   0  0  0  0  0  0  0  0  0  0  0  0
    2.1603    1.0865   -1.7240 H   0  0  0  0  0  0  0  0  0  0  0  0
    2.1942    0.8382    1.2182 H   0  0  0  0  0  0  0  0  0  0  0  0
    1.5027   -1.3859   -0.5931 H   0  0  0  0  0  0  0  0  0  0  0  0
    2.6789   -1.4082    0.7100 H   0  0  0  0  0  0  0  0  0  0  0  0
   -1.4846   -1.3551    1.7696 H   0  0  0  0  0  0  0  0  0  0  0  0
   -1.7457    0.9614    1.5605 H   0  0  0  0  0  0  0  0  0  0  0  0
   -0.2666    1.1352    0.8804 H   0  0  0  0  0  0  0  0  0  0  0  0
   -1.0918   -2.1001   -0.5740 H   0  0  0  0  0  0  0  0  0  0  0  0
   -0.5704   -0.4922   -1.0368 H   0  0  0  0  0  0  0  0  0  0  0  0
   -3.0363   -1.3264   -1.4505 H   0  0  0  0  0  0  0  0  0  0  0  0
   -3.3112   -0.8993    0.2333 H   0  0  0  0  0  0  0  0  0  0  0  0
   -2.4564    1.4678   -0.3490 H   0  0  0  0  0  0  0  0  0  0  0  0
   -2.3198    0.9429   -2.0194 H   0  0  0  0  0  0  0  0  0  0  0  0
   -4.4379    2.1605   -1.6303 H   0  0  0  0  0  0  0  0  0  0  0  0
   -4.7847    0.4803   -2.0692 H   0  0  0  0  0  0  0  0  0  0  0  0
   -4.9096    1.0029   -0.3776 H   0  0  0  0  0  0  0  0  0  0  0  0
    0.4254   -3.0873    2.2792 H   0  0  0  0  0  0  0  0  0  0  0  0
    0.5361   -0.1903    2.8361 H   0  0  0  0  0  0  0  0  0  0  0  0
  1 15  1  0  0  0  0
  2  3  1  0  0  0  0
  2  1  1  0  0  0  0
  2 17  1  0  0  0  0
  3  1  1  0  0  0  0
  3  4  1  0  0  0  0
  4  5  1  0  0  0  0
  4 20  1  0  0  0  0
  5 22  1  0  0  0  0
  5  6  1  0  0  0  0
  6 14  1  0  0  0  0
  7  6  1  0  0  0  0
  7  8  1  0  0  0  0
  7 23  1  1  0  0  0
  9  7  1  0  0  0  0
 10  9  1  0  0  0  0
 10 29  1  0  0  0  0
 11 10  1  0  0  0  0
 11 30  1  0  0  0  0
 12 11  1  0  0  0  0
 12 34  1  0  0  0  0
 13  6  1  0  0  0  0
 13 35  1  0  0  0  0
 14 36  1  0  0  0  0
 16  1  1  0  0  0  0
 18  2  1  0  0  0  0
 19  3  1  0  0  0  0
 21  5  1  0  0  0  0
 24  8  1  0  0  0  0
 25  8  1  0  0  0  0
 26  9  1  0  0  0  0
 27  9  1  0  0  0  0
 28 10  1  0  0  0  0
 31 11  1  0  0  0  0
 32 12  1  0  0  0  0
 33 12  1  0  0  0  0
M  END
