70.9247
 OpenBabel10231816213D

 50 52  0  0  1  0  0  0  0  0999 V2000
    6.1805    0.2786    0.4044 O   0  0  0  0  0  0  0  0  0  0  0  0
    5.9499    0.4548   -0.9098 C   0  0  0  0  0  0  0  0  0  0  0  0
    6.8343    0.8269   -1.6615 O   0  0  0  0  0  0  0  0  0  0  0  0
    4.5066    0.2217   -1.2990 C   0  0  1  0  0  0  0  0  0  0  0  0
    3.9193   -1.0629   -0.6812 C   0  0  0  0  0  0  0  0  0  0  0  0
    3.1441   -0.7583    0.6110 C   0  0  0  0  0  0  0  0  0  0  0  0
    1.9028    0.1351    0.3524 C   0  0  2  0  0  0  0  0  0  0  0  0
    2.1840    1.0767   -0.8548 C   0  0  0  0  0  0  0  0  0  0  0  0
    3.6684    1.4520   -0.9351 C   0  0  0  0  0  0  0  0  0  0  0  0
    1.7180    0.9658    1.5656 C   0  0  0  0  0  0  0  0  0  0  0  0
    1.5463    1.6461    2.5062 N   0  0  0  0  0  0  0  0  0  0  0  0
    0.6115   -0.6493    0.0712 C   0  0  0  0  0  0  0  0  0  0  0  0
    0.5870   -2.0302   -0.1801 C   0  0  0  0  0  0  0  0  0  0  0  0
   -0.6097   -2.7004   -0.4467 C   0  0  0  0  0  0  0  0  0  0  0  0
   -1.8123   -1.9980   -0.4743 C   0  0  0  0  0  0  0  0  0  0  0  0
   -3.0354   -2.5505   -0.7349 O   0  0  0  0  0  0  0  0  0  0  0  0
   -3.0843   -3.9400   -0.9973 C   0  0  0  0  0  0  0  0  0  0  0  0
   -1.8152   -0.6204   -0.2215 C   0  0  0  0  0  0  0  0  0  0  0  0
   -0.6147    0.0372    0.0444 C   0  0  0  0  0  0  0  0  0  0  0  0
   -3.0405   -0.0111   -0.2351 O   0  0  0  0  0  0  0  0  0  0  0  0
   -3.1134    1.3922    0.0202 C   0  0  0  0  0  0  0  0  0  0  0  0
   -2.8935    1.7062    1.5095 C   0  0  0  0  0  0  0  0  0  0  0  0
   -4.2610    2.0846    2.0823 C   0  0  0  0  0  0  0  0  0  0  0  0
   -5.2725    1.5824    1.0596 C   0  0  0  0  0  0  0  0  0  0  0  0
   -4.5567    1.7991   -0.2702 C   0  0  0  0  0  0  0  0  0  0  0  0
    7.1296    0.4830    0.5401 H   0  0  0  0  0  0  0  0  0  0  0  0
    4.5150    0.0960   -2.3904 H   0  0  0  0  0  0  0  0  0  0  0  0
    4.7001   -1.8060   -0.4848 H   0  0  0  0  0  0  0  0  0  0  0  0
    3.2344   -1.5178   -1.4093 H   0  0  0  0  0  0  0  0  0  0  0  0
    3.8241   -0.2358    1.2968 H   0  0  0  0  0  0  0  0  0  0  0  0
    2.8691   -1.6762    1.1378 H   0  0  0  0  0  0  0  0  0  0  0  0
    1.5758    1.9869   -0.7905 H   0  0  0  0  0  0  0  0  0  0  0  0
    1.9072    0.5805   -1.7975 H   0  0  0  0  0  0  0  0  0  0  0  0
    3.9930    1.8669    0.0282 H   0  0  0  0  0  0  0  0  0  0  0  0
    3.8361    2.2401   -1.6774 H   0  0  0  0  0  0  0  0  0  0  0  0
    1.4974   -2.6205   -0.1822 H   0  0  0  0  0  0  0  0  0  0  0  0
   -0.5729   -3.7689   -0.6333 H   0  0  0  0  0  0  0  0  0  0  0  0
   -2.5050   -4.1973   -1.8898 H   0  0  0  0  0  0  0  0  0  0  0  0
   -2.7409   -4.5196   -0.1346 H   0  0  0  0  0  0  0  0  0  0  0  0
   -4.1325   -4.1840   -1.1833 H   0  0  0  0  0  0  0  0  0  0  0  0
   -0.6184    1.1018    0.2525 H   0  0  0  0  0  0  0  0  0  0  0  0
   -2.4298    1.9302   -0.6472 H   0  0  0  0  0  0  0  0  0  0  0  0
   -2.4762    0.8444    2.0428 H   0  0  0  0  0  0  0  0  0  0  0  0
   -2.1815    2.5318    1.6332 H   0  0  0  0  0  0  0  0  0  0  0  0
   -4.4237    1.6619    3.0801 H   0  0  0  0  0  0  0  0  0  0  0  0
   -4.3374    3.1744    2.1814 H   0  0  0  0  0  0  0  0  0  0  0  0
   -5.4786    0.5170    1.2182 H   0  0  0  0  0  0  0  0  0  0  0  0
   -6.2291    2.1135    1.1159 H   0  0  0  0  0  0  0  0  0  0  0  0
   -4.9937    1.2035   -1.0798 H   0  0  0  0  0  0  0  0  0  0  0  0
   -4.6054    2.8563   -0.5519 H   0  0  0  0  0  0  0  0  0  0  0  0
  1 26  1  0  0  0  0
  2  1  1  0  0  0  0
  3  2  2  0  0  0  0
  4 27  1  6  0  0  0
  4  9  1  0  0  0  0
  4  2  1  0  0  0  0
  4  5  1  0  0  0  0
  5 28  1  0  0  0  0
  5  6  1  0  0  0  0
  6 31  1  0  0  0  0
  6 30  1  0  0  0  0
  7 12  1  6  0  0  0
  7  6  1  0  0  0  0
  7 10  1  0  0  0  0
  8 32  1  0  0  0  0
  8  7  1  0  0  0  0
  9  8  1  0  0  0  0
  9 34  1  0  0  0  0
 10 11  3  0  0  0  0
 13 12  2  0  0  0  0
 14 13  1  0  0  0  0
 15 14  2  0  0  0  0
 15 18  1  0  0  0  0
 16 15  1  0  0  0  0
 17 16  1  0  0  0  0
 17 39  1  0  0  0  0
 18 19  2  0  0  0  0
 19 12  1  0  0  0  0
 19 41  1  0  0  0  0
 20 18  1  0  0  0  0
 20 21  1  0  0  0  0
 21 22  1  0  0  0  0
 22 44  1  0  0  0  0
 22 43  1  0  0  0  0
 22 23  1  0  0  0  0
 23 46  1  0  0  0  0
 23 45  1  0  0  0  0
 24 48  1  0  0  0  0
 24 47  1  0  0  0  0
 24 23  1  0  0  0  0
 25 21  1  0  0  0  0
 25 24  1  0  0  0  0
 29  5  1  0  0  0  0
 33  8  1  0  0  0  0
 35  9  1  0  0  0  0
 36 13  1  0  0  0  0
 37 14  1  0  0  0  0
 38 17  1  0  0  0  0
 40 17  1  0  0  0  0
 42 21  1  0  0  0  0
 49 25  1  0  0  0  0
 50 25  1  0  0  0  0
M  END
