71.2722
 OpenBabel10231816213D

 50 52  0  0  1  0  0  0  0  0999 V2000
    6.5395    1.9576   -0.4912 O   0  0  0  0  0  0  0  0  0  0  0  0
    5.8988    0.7921   -0.7044 C   0  0  0  0  0  0  0  0  0  0  0  0
    6.5147   -0.2590   -0.7327 O   0  0  0  0  0  0  0  0  0  0  0  0
    4.4074    0.9835   -0.8803 C   0  0  1  0  0  0  0  0  0  0  0  0
    3.7323   -0.3024   -1.4005 C   0  0  0  0  0  0  0  0  0  0  0  0
    3.2555   -1.1828   -0.2392 C   0  0  0  0  0  0  0  0  0  0  0  0
    2.1523   -0.4823    0.6272 C   0  0  2  0  0  0  0  0  0  0  0  0
    2.3145    1.0644    0.5037 C   0  0  0  0  0  0  0  0  0  0  0  0
    3.7886    1.4590    0.4440 C   0  0  0  0  0  0  0  0  0  0  0  0
    2.3945   -0.8327    2.0597 C   0  0  0  0  0  0  0  0  0  0  0  0
    2.5987   -1.1015    3.1724 N   0  0  0  0  0  0  0  0  0  0  0  0
    0.7454   -0.9782    0.2481 C   0  0  0  0  0  0  0  0  0  0  0  0
    0.4321   -2.3449    0.3687 C   0  0  0  0  0  0  0  0  0  0  0  0
   -0.8417   -2.8380    0.0516 C   0  0  0  0  0  0  0  0  0  0  0  0
   -1.8470   -1.9766   -0.3862 C   0  0  0  0  0  0  0  0  0  0  0  0
   -3.1011   -2.3639   -0.7735 O   0  0  0  0  0  0  0  0  0  0  0  0
   -3.4180   -3.7419   -0.6539 C   0  0  0  0  0  0  0  0  0  0  0  0
   -1.5596   -0.6151   -0.4780 C   0  0  0  0  0  0  0  0  0  0  0  0
   -0.2821   -0.1245   -0.1767 C   0  0  0  0  0  0  0  0  0  0  0  0
   -2.4489    0.3031   -0.9731 O   0  0  0  0  0  0  0  0  0  0  0  0
   -3.5198    0.6147   -0.0768 C   0  0  0  0  0  0  0  0  0  0  0  0
   -4.5615    1.4389   -0.8511 C   0  0  0  0  0  0  0  0  0  0  0  0
   -4.9389    2.6231    0.0379 C   0  0  0  0  0  0  0  0  0  0  0  0
   -4.3354    2.3186    1.3987 C   0  0  0  0  0  0  0  0  0  0  0  0
   -3.0777    1.5403    1.0572 C   0  0  0  0  0  0  0  0  0  0  0  0
    7.4795    1.7000   -0.3845 H   0  0  0  0  0  0  0  0  0  0  0  0
    4.2757    1.7536   -1.6518 H   0  0  0  0  0  0  0  0  0  0  0  0
    4.4090   -0.8710   -2.0487 H   0  0  0  0  0  0  0  0  0  0  0  0
    2.8674   -0.0373   -2.0232 H   0  0  0  0  0  0  0  0  0  0  0  0
    4.1343   -1.4094    0.3816 H   0  0  0  0  0  0  0  0  0  0  0  0
    2.9238   -2.1497   -0.6341 H   0  0  0  0  0  0  0  0  0  0  0  0
    1.8132    1.5775    1.3341 H   0  0  0  0  0  0  0  0  0  0  0  0
    1.8558    1.4435   -0.4187 H   0  0  0  0  0  0  0  0  0  0  0  0
    3.8887    2.5464    0.5339 H   0  0  0  0  0  0  0  0  0  0  0  0
    4.3241    1.0321    1.3020 H   0  0  0  0  0  0  0  0  0  0  0  0
    1.1804   -3.0551    0.7265 H   0  0  0  0  0  0  0  0  0  0  0  0
   -1.0014   -3.9067    0.1550 H   0  0  0  0  0  0  0  0  0  0  0  0
   -3.3426   -4.0745    0.3863 H   0  0  0  0  0  0  0  0  0  0  0  0
   -4.4567   -3.8670   -0.9709 H   0  0  0  0  0  0  0  0  0  0  0  0
   -2.7898   -4.3503   -1.3122 H   0  0  0  0  0  0  0  0  0  0  0  0
   -0.1418    0.9460   -0.2850 H   0  0  0  0  0  0  0  0  0  0  0  0
   -4.0046   -0.2848    0.3236 H   0  0  0  0  0  0  0  0  0  0  0  0
   -4.1745    1.7921   -1.8140 H   0  0  0  0  0  0  0  0  0  0  0  0
   -5.4423    0.8245   -1.0693 H   0  0  0  0  0  0  0  0  0  0  0  0
   -6.0214    2.7742    0.0913 H   0  0  0  0  0  0  0  0  0  0  0  0
   -4.4986    3.5412   -0.3697 H   0  0  0  0  0  0  0  0  0  0  0  0
   -5.0224    1.6994    1.9871 H   0  0  0  0  0  0  0  0  0  0  0  0
   -4.1208    3.2272    1.9690 H   0  0  0  0  0  0  0  0  0  0  0  0
   -2.6965    0.9811    1.9174 H   0  0  0  0  0  0  0  0  0  0  0  0
   -2.2810    2.2154    0.7227 H   0  0  0  0  0  0  0  0  0  0  0  0
  1 26  1  0  0  0  0
  2  1  1  0  0  0  0
  3  2  2  0  0  0  0
  4 27  1  6  0  0  0
  4  2  1  0  0  0  0
  4  9  1  0  0  0  0
  5  4  1  0  0  0  0
  5  6  1  0  0  0  0
  6 30  1  0  0  0  0
  6  7  1  0  0  0  0
  7 12  1  6  0  0  0
  7 10  1  0  0  0  0
  8  7  1  0  0  0  0
  8 32  1  0  0  0  0
  9  8  1  0  0  0  0
  9 34  1  0  0  0  0
  9 35  1  0  0  0  0
 10 11  3  0  0  0  0
 12 13  1  0  0  0  0
 13 36  1  0  0  0  0
 14 37  1  0  0  0  0
 14 13  2  0  0  0  0
 15 14  1  0  0  0  0
 16 17  1  0  0  0  0
 16 15  1  0  0  0  0
 17 38  1  0  0  0  0
 18 15  2  0  0  0  0
 18 19  1  0  0  0  0
 19 12  2  0  0  0  0
 20 18  1  0  0  0  0
 20 21  1  0  0  0  0
 21 42  1  0  0  0  0
 21 25  1  0  0  0  0
 22 21  1  0  0  0  0
 22 23  1  0  0  0  0
 23 45  1  0  0  0  0
 23 24  1  0  0  0  0
 24 48  1  0  0  0  0
 24 47  1  0  0  0  0
 25 24  1  0  0  0  0
 25 49  1  0  0  0  0
 28  5  1  0  0  0  0
 29  5  1  0  0  0  0
 31  6  1  0  0  0  0
 33  8  1  0  0  0  0
 39 17  1  0  0  0  0
 40 17  1  0  0  0  0
 41 19  1  0  0  0  0
 43 22  1  0  0  0  0
 44 22  1  0  0  0  0
 46 23  1  0  0  0  0
 50 25  1  0  0  0  0
M  END
