51.3453
 OpenBabel10231816213D

 36 36  0  0  1  0  0  0  0  0999 V2000
    3.9291    0.4148    0.8843 C   0  0  0  0  0  0  0  0  0  0  0  0
    4.2965    1.7235    0.2574 C   0  0  0  0  0  0  0  0  0  0  0  0
    3.3130    0.8198   -0.4284 C   0  0  0  0  0  0  0  0  0  0  0  0
    1.9096    1.2574   -0.4952 N   0  0  0  0  0  0  0  0  0  0  0  0
    0.9972    0.1543   -0.8907 C   0  0  0  0  0  0  0  0  0  0  0  0
    0.7185   -0.8207    0.2897 C   0  0  0  0  0  0  0  0  0  0  0  0
   -0.5365   -1.7397    0.0923 C   0  0  1  0  0  0  0  0  0  0  0  0
   -0.3586   -2.9428    0.9709 N   0  0  0  0  0  0  0  0  0  0  0  0
   -1.9025   -1.1050    0.4339 C   0  0  0  0  0  0  0  0  0  0  0  0
   -2.2835    0.1153   -0.4071 C   0  0  0  0  0  0  0  0  0  0  0  0
   -3.7460    0.5135   -0.2054 C   0  0  0  0  0  0  0  0  0  0  0  0
   -4.1009    1.7579   -1.0068 C   0  0  0  0  0  0  0  0  0  0  0  0
    0.5833   -0.0834    1.5033 O   0  0  0  0  0  0  0  0  0  0  0  0
    1.8525   -1.6797    0.4289 O   0  0  0  0  0  0  0  0  0  0  0  0
    4.6416   -0.4018    0.8581 H   0  0  0  0  0  0  0  0  0  0  0  0
    3.3211    0.4255    1.7804 H   0  0  0  0  0  0  0  0  0  0  0  0
    3.9302    2.6251    0.7321 H   0  0  0  0  0  0  0  0  0  0  0  0
    5.2845    1.8160   -0.1774 H   0  0  0  0  0  0  0  0  0  0  0  0
    3.6739    0.2918   -1.3095 H   0  0  0  0  0  0  0  0  0  0  0  0
    1.8294    2.0028   -1.1869 H   0  0  0  0  0  0  0  0  0  0  0  0
    1.3926   -0.3827   -1.7613 H   0  0  0  0  0  0  0  0  0  0  0  0
    0.0813    0.6421   -1.2166 H   0  0  0  0  0  0  0  0  0  0  0  0
   -0.5383   -2.1168   -0.9369 H   0  0  0  0  0  0  0  0  0  0  0  0
   -0.5563   -2.6505    1.9342 H   0  0  0  0  0  0  0  0  0  0  0  0
   -1.0628   -3.6422    0.7382 H   0  0  0  0  0  0  0  0  0  0  0  0
   -1.9270   -0.8152    1.4931 H   0  0  0  0  0  0  0  0  0  0  0  0
   -2.6793   -1.8708    0.3106 H   0  0  0  0  0  0  0  0  0  0  0  0
   -2.1078   -0.0936   -1.4689 H   0  0  0  0  0  0  0  0  0  0  0  0
   -1.6597    0.9677   -0.1164 H   0  0  0  0  0  0  0  0  0  0  0  0
   -4.4006   -0.3103   -0.5117 H   0  0  0  0  0  0  0  0  0  0  0  0
   -3.9350    0.7052    0.8565 H   0  0  0  0  0  0  0  0  0  0  0  0
   -3.9482    1.5939   -2.0786 H   0  0  0  0  0  0  0  0  0  0  0  0
   -5.1515    2.0212   -0.8499 H   0  0  0  0  0  0  0  0  0  0  0  0
   -3.4886    2.6122   -0.7004 H   0  0  0  0  0  0  0  0  0  0  0  0
    1.1730    0.6828    1.3498 H   0  0  0  0  0  0  0  0  0  0  0  0
    1.4561   -2.4880    0.8344 H   0  0  0  0  0  0  0  0  0  0  0  0
  1 16  1  0  0  0  0
  2 17  1  0  0  0  0
  2  1  1  0  0  0  0
  3  2  1  0  0  0  0
  3  1  1  0  0  0  0
  4  3  1  0  0  0  0
  5  4  1  0  0  0  0
  5  6  1  0  0  0  0
  6 14  1  0  0  0  0
  6 13  1  0  0  0  0
  7 23  1  6  0  0  0
  7  6  1  0  0  0  0
  7  9  1  0  0  0  0
  7  8  1  0  0  0  0
  8 24  1  0  0  0  0
  9 26  1  0  0  0  0
 10 11  1  0  0  0  0
 10 29  1  0  0  0  0
 10  9  1  0  0  0  0
 11 31  1  0  0  0  0
 12 33  1  0  0  0  0
 12 34  1  0  0  0  0
 12 11  1  0  0  0  0
 14 36  1  0  0  0  0
 15  1  1  0  0  0  0
 18  2  1  0  0  0  0
 19  3  1  0  0  0  0
 20  4  1  0  0  0  0
 21  5  1  0  0  0  0
 22  5  1  0  0  0  0
 25  8  1  0  0  0  0
 27  9  1  0  0  0  0
 28 10  1  0  0  0  0
 30 11  1  0  0  0  0
 32 12  1  0  0  0  0
 35 13  1  0  0  0  0
M  END
