82.8861
 OpenBabel10231816213D

 44 47  0  0  1  0  0  0  0  0999 V2000
   -0.6994   -5.3240   -0.6353 Cl  0  0  0  0  0  0  0  0  0  0  0  0
   -1.2504   -3.7035   -0.6330 C   0  0  0  0  0  0  0  0  0  0  0  0
   -1.0494   -2.8847    0.4654 C   0  0  0  0  0  0  0  0  0  0  0  0
   -1.4292   -1.5875    0.5094 N   0  0  0  0  0  0  0  0  0  0  0  0
   -2.0772   -1.0686   -0.5609 C   0  0  0  0  0  0  0  0  0  0  0  0
   -2.4430    0.2815   -0.4659 N   0  0  0  0  0  0  0  0  0  0  0  0
   -3.2975    0.9988   -1.2906 C   0  0  0  0  0  0  0  0  0  0  0  0
   -3.9127    0.6237   -2.2720 O   0  0  0  0  0  0  0  0  0  0  0  0
   -3.3775    2.3553   -0.7232 C   0  0  0  0  0  0  0  0  0  0  0  0
   -4.1555    3.3608   -1.1667 N   0  0  0  0  0  0  0  0  0  0  0  0
   -4.0507    4.4820   -0.4085 C   0  0  0  0  0  0  0  0  0  0  0  0
   -3.2232    4.5683    0.7150 C   0  0  0  0  0  0  0  0  0  0  0  0
   -2.4506    3.5402    1.1444 N   0  0  0  0  0  0  0  0  0  0  0  0
   -2.5579    2.4288    0.3833 C   0  0  0  0  0  0  0  0  0  0  0  0
   -1.8646    1.1101    0.5849 C   0  0  2  0  0  0  0  0  0  0  0  0
   -0.4841    1.2546    0.2807 O   0  0  0  0  0  0  0  0  0  0  0  0
    0.3392    1.0226    1.3271 C   0  0  0  0  0  0  0  0  0  0  0  0
    0.0131    1.1418    2.4987 O   0  0  0  0  0  0  0  0  0  0  0  0
    1.5816    0.5945    0.9054 N   0  0  0  0  0  0  0  0  0  0  0  0
    1.8031    0.0560   -0.4441 C   0  0  0  0  0  0  0  0  0  0  0  0
    2.4292   -1.3475   -0.3577 C   0  0  0  0  0  0  0  0  0  0  0  0
    3.7241   -1.3842    0.3575 N   0  0  0  0  0  0  0  0  0  0  0  0
    3.8858   -0.2272    1.2698 C   0  0  0  0  0  0  0  0  0  0  0  0
    2.5525    0.1825    1.9176 C   0  0  0  0  0  0  0  0  0  0  0  0
    4.8449   -1.4696   -0.5727 C   0  0  0  0  0  0  0  0  0  0  0  0
   -2.3293   -1.8338   -1.6945 C   0  0  0  0  0  0  0  0  0  0  0  0
   -1.8963   -3.1625   -1.7337 C   0  0  0  0  0  0  0  0  0  0  0  0
   -0.5572   -3.2493    1.3636 H   0  0  0  0  0  0  0  0  0  0  0  0
   -4.6588    5.3235   -0.7216 H   0  0  0  0  0  0  0  0  0  0  0  0
   -3.1669    5.4783    1.3035 H   0  0  0  0  0  0  0  0  0  0  0  0
   -2.1009    0.6856    1.5681 H   0  0  0  0  0  0  0  0  0  0  0  0
    2.4741    0.7453   -0.9701 H   0  0  0  0  0  0  0  0  0  0  0  0
    0.8752    0.0002   -1.0184 H   0  0  0  0  0  0  0  0  0  0  0  0
    1.7424   -1.9895    0.2079 H   0  0  0  0  0  0  0  0  0  0  0  0
    2.4986   -1.7948   -1.3561 H   0  0  0  0  0  0  0  0  0  0  0  0
    4.2784    0.6410    0.7223 H   0  0  0  0  0  0  0  0  0  0  0  0
    4.6152   -0.4798    2.0474 H   0  0  0  0  0  0  0  0  0  0  0  0
    2.6913    0.9990    2.6336 H   0  0  0  0  0  0  0  0  0  0  0  0
    2.1245   -0.6669    2.4665 H   0  0  0  0  0  0  0  0  0  0  0  0
    5.7929   -1.5252   -0.0274 H   0  0  0  0  0  0  0  0  0  0  0  0
    4.8821   -0.6115   -1.2531 H   0  0  0  0  0  0  0  0  0  0  0  0
    4.7714   -2.3834   -1.1728 H   0  0  0  0  0  0  0  0  0  0  0  0
   -2.8230   -1.4205   -2.5686 H   0  0  0  0  0  0  0  0  0  0  0  0
   -2.0644   -3.7603   -2.6252 H   0  0  0  0  0  0  0  0  0  0  0  0
  1  2  1  0  0  0  0
  2  3  2  0  0  0  0
  3  4  1  0  0  0  0
  3 28  1  0  0  0  0
  5  6  1  0  0  0  0
  5  4  2  0  0  0  0
  6 15  1  0  0  0  0
  7  9  1  0  0  0  0
  7  6  1  0  0  0  0
  8  7  2  0  0  0  0
  9 14  1  0  0  0  0
 10  9  2  0  0  0  0
 10 11  1  0  0  0  0
 11 12  2  0  0  0  0
 12 13  1  0  0  0  0
 12 30  1  0  0  0  0
 14 15  1  0  0  0  0
 14 13  2  0  0  0  0
 15 31  1  1  0  0  0
 16 15  1  0  0  0  0
 16 17  1  0  0  0  0
 17 18  2  0  0  0  0
 19 17  1  0  0  0  0
 19 24  1  0  0  0  0
 20 21  1  0  0  0  0
 20 19  1  0  0  0  0
 21 34  1  0  0  0  0
 21 22  1  0  0  0  0
 22 23  1  0  0  0  0
 23 24  1  0  0  0  0
 23 37  1  0  0  0  0
 24 39  1  0  0  0  0
 24 38  1  0  0  0  0
 25 40  1  0  0  0  0
 25 22  1  0  0  0  0
 26  5  1  0  0  0  0
 27 26  2  0  0  0  0
 27  2  1  0  0  0  0
 29 11  1  0  0  0  0
 32 20  1  0  0  0  0
 33 20  1  0  0  0  0
 35 21  1  0  0  0  0
 36 23  1  0  0  0  0
 41 25  1  0  0  0  0
 42 25  1  0  0  0  0
 43 26  1  0  0  0  0
 44 27  1  0  0  0  0
M  END
