-13.9609
 OpenBabel10231816213D

 66 68  0  0  1  0  0  0  0  0999 V2000
    0.4558   -0.2698    0.2511 C   0  0  2  0  0  0  0  0  0  0  0  0
    0.5071   -1.1317   -1.0302 C   0  0  0  0  0  0  0  0  0  0  0  0
   -0.6227   -2.1428   -1.0691 C   0  0  0  0  0  0  0  0  0  0  0  0
   -1.6420   -2.0540   -2.0259 C   0  0  0  0  0  0  0  0  0  0  0  0
   -2.7769   -2.8672   -1.9361 C   0  0  0  0  0  0  0  0  0  0  0  0
   -2.9249   -3.7247   -0.8535 C   0  0  0  0  0  0  0  0  0  0  0  0
   -1.8619   -3.9149    0.0273 C   0  0  0  0  0  0  0  0  0  0  0  0
   -0.7133   -3.1280   -0.0832 C   0  0  0  0  0  0  0  0  0  0  0  0
   -4.0841   -4.3907   -0.5922 O   0  0  0  0  0  0  0  0  0  0  0  0
   -5.2604   -3.5748   -0.4159 C   0  0  0  0  0  0  0  0  0  0  0  0
   -5.1902   -2.5893    0.7649 C   0  0  0  0  0  0  0  0  0  0  0  0
   -4.5535   -1.2445    0.3875 C   0  0  0  0  0  0  0  0  0  0  0  0
   -4.2394   -0.3785    1.5810 C   0  0  0  0  0  0  0  0  0  0  0  0
   -4.6408   -0.6338    2.7286 O   0  0  0  0  0  0  0  0  0  0  0  0
   -3.4808    0.7354    1.3803 N   0  0  0  0  0  0  0  0  0  0  0  0
   -3.0634    1.3329    0.1133 C   0  0  2  0  0  0  0  0  0  0  0  0
   -1.6014    1.0859   -0.2788 C   0  0  0  0  0  0  0  0  0  0  0  0
   -1.1170    1.6084   -1.2781 O   0  0  0  0  0  0  0  0  0  0  0  0
   -0.8983    0.2404    0.5318 N   0  0  0  0  0  0  0  0  0  0  0  0
   -3.3082    2.8375    0.1049 C   0  0  0  0  0  0  0  0  0  0  0  0
   -2.5491    3.5389    1.2112 C   0  0  0  0  0  0  0  0  0  0  0  0
   -2.3927    3.0604    2.3327 O   0  0  0  0  0  0  0  0  0  0  0  0
   -2.0813    4.7798    0.9063 N   0  0  0  0  0  0  0  0  0  0  0  0
    1.4970    0.8732    0.2705 C   0  0  2  0  0  0  0  0  0  0  0  0
    1.5397    1.6035   -0.9697 O   0  0  0  0  0  0  0  0  0  0  0  0
    2.9306    0.3906    0.5367 C   0  0  0  0  0  0  0  0  0  0  0  0
    3.4773   -0.1899   -0.6949 N   0  0  0  0  0  0  0  0  0  0  0  0
    5.0329   -0.7889   -0.7193 S   0  0  0  0  0  0  0  0  0  0  0  0
    5.1252   -1.7781    0.3316 O   0  0  0  0  0  0  0  0  0  0  0  0
    5.3033   -1.1107   -2.1049 O   0  0  0  0  0  0  0  0  0  0  0  0
    6.0430    0.5972   -0.2734 C   0  0  0  0  0  0  0  0  0  0  0  0
    6.3018    0.8648    1.0715 C   0  0  0  0  0  0  0  0  0  0  0  0
    7.0981    1.9567    1.4206 C   0  0  0  0  0  0  0  0  0  0  0  0
    7.6500    2.7643    0.4244 C   0  0  0  0  0  0  0  0  0  0  0  0
    7.4115    2.4767   -0.9209 C   0  0  0  0  0  0  0  0  0  0  0  0
    6.6151    1.3846   -1.2720 C   0  0  0  0  0  0  0  0  0  0  0  0
    0.6626   -0.9181    1.1115 H   0  0  0  0  0  0  0  0  0  0  0  0
    0.4688   -0.4921   -1.9201 H   0  0  0  0  0  0  0  0  0  0  0  0
    1.4589   -1.6720   -1.0637 H   0  0  0  0  0  0  0  0  0  0  0  0
   -1.5790   -1.3137   -2.8192 H   0  0  0  0  0  0  0  0  0  0  0  0
   -3.5689   -2.7775   -2.6702 H   0  0  0  0  0  0  0  0  0  0  0  0
   -1.9444   -4.6435    0.8288 H   0  0  0  0  0  0  0  0  0  0  0  0
    0.1004   -3.2547    0.6275 H   0  0  0  0  0  0  0  0  0  0  0  0
   -6.0568   -4.3072   -0.2138 H   0  0  0  0  0  0  0  0  0  0  0  0
   -5.5353   -3.0539   -1.3402 H   0  0  0  0  0  0  0  0  0  0  0  0
   -4.6517   -3.0505    1.6003 H   0  0  0  0  0  0  0  0  0  0  0  0
   -6.2081   -2.3768    1.1200 H   0  0  0  0  0  0  0  0  0  0  0  0
   -5.2203   -0.6979   -0.2852 H   0  0  0  0  0  0  0  0  0  0  0  0
   -3.6126   -1.3856   -0.1366 H   0  0  0  0  0  0  0  0  0  0  0  0
   -3.2972    1.2982    2.2118 H   0  0  0  0  0  0  0  0  0  0  0  0
   -3.6538    0.8851   -0.6921 H   0  0  0  0  0  0  0  0  0  0  0  0
   -1.4139   -0.1807    1.2973 H   0  0  0  0  0  0  0  0  0  0  0  0
   -4.3749    3.0330    0.2579 H   0  0  0  0  0  0  0  0  0  0  0  0
   -3.0190    3.2512   -0.8661 H   0  0  0  0  0  0  0  0  0  0  0  0
   -2.2226    5.2170    0.0053 H   0  0  0  0  0  0  0  0  0  0  0  0
   -1.5983    5.3084    1.6253 H   0  0  0  0  0  0  0  0  0  0  0  0
    1.2113    1.5747    1.0666 H   0  0  0  0  0  0  0  0  0  0  0  0
    0.6078    1.7938   -1.2145 H   0  0  0  0  0  0  0  0  0  0  0  0
    3.5328    1.2623    0.8090 H   0  0  0  0  0  0  0  0  0  0  0  0
    2.9653   -0.3349    1.3491 H   0  0  0  0  0  0  0  0  0  0  0  0
    3.2475    0.3448   -1.5363 H   0  0  0  0  0  0  0  0  0  0  0  0
    5.8709    0.2317    1.8415 H   0  0  0  0  0  0  0  0  0  0  0  0
    7.2887    2.1745    2.4685 H   0  0  0  0  0  0  0  0  0  0  0  0
    8.2711    3.6153    0.6967 H   0  0  0  0  0  0  0  0  0  0  0  0
    7.8461    3.0999   -1.6985 H   0  0  0  0  0  0  0  0  0  0  0  0
    6.4384    1.1502   -2.3186 H   0  0  0  0  0  0  0  0  0  0  0  0
  1 24  1  0  0  0  0
  1 19  1  0  0  0  0
  1 37  1  1  0  0  0
  2  1  1  0  0  0  0
  3  2  1  0  0  0  0
  3  8  2  0  0  0  0
  4  5  2  0  0  0  0
  4  3  1  0  0  0  0
  5  6  1  0  0  0  0
  6  9  1  0  0  0  0
  6  7  2  0  0  0  0
  7 42  1  0  0  0  0
  8  7  1  0  0  0  0
  8 43  1  0  0  0  0
  9 10  1  0  0  0  0
 10 44  1  0  0  0  0
 10 11  1  0  0  0  0
 11 47  1  0  0  0  0
 11 46  1  0  0  0  0
 12 11  1  0  0  0  0
 12 13  1  0  0  0  0
 13 14  2  0  0  0  0
 15 13  1  0  0  0  0
 15 50  1  0  0  0  0
 16 51  1  6  0  0  0
 16 15  1  0  0  0  0
 17 16  1  0  0  0  0
 17 19  1  0  0  0  0
 18 17  2  0  0  0  0
 19 52  1  0  0  0  0
 20 16  1  0  0  0  0
 20 53  1  0  0  0  0
 20 21  1  0  0  0  0
 21 22  2  0  0  0  0
 23 21  1  0  0  0  0
 23 56  1  0  0  0  0
 24 26  1  0  0  0  0
 24 57  1  1  0  0  0
 25 24  1  0  0  0  0
 26 59  1  0  0  0  0
 26 60  1  0  0  0  0
 27 26  1  0  0  0  0
 28 27  1  0  0  0  0
 28 31  1  0  0  0  0
 28 29  2  0  0  0  0
 30 28  2  0  0  0  0
 31 32  2  0  0  0  0
 32 33  1  0  0  0  0
 32 62  1  0  0  0  0
 33 63  1  0  0  0  0
 34 64  1  0  0  0  0
 34 33  2  0  0  0  0
 35 34  1  0  0  0  0
 36 35  2  0  0  0  0
 36 31  1  0  0  0  0
 38  2  1  0  0  0  0
 39  2  1  0  0  0  0
 40  4  1  0  0  0  0
 41  5  1  0  0  0  0
 45 10  1  0  0  0  0
 48 12  1  0  0  0  0
 49 12  1  0  0  0  0
 54 20  1  0  0  0  0
 55 23  1  0  0  0  0
 58 25  1  0  0  0  0
 61 27  1  0  0  0  0
 65 35  1  0  0  0  0
 66 36  1  0  0  0  0
M  END
