41.9775
 OpenBabel10231816213D

 25 25  0  0  1  0  0  0  0  0999 V2000
   -0.9225   -3.3561   -1.7513 O   0  0  0  0  0  0  0  0  0  0  0  0
   -0.3086   -2.5310   -0.8579 C   0  0  0  0  0  0  0  0  0  0  0  0
    0.7994   -2.8030   -0.3948 O   0  0  0  0  0  0  0  0  0  0  0  0
   -1.0695   -1.3213   -0.5322 C   0  0  0  0  0  0  0  0  0  0  0  0
   -2.2366   -1.0687   -1.1604 N   0  0  0  0  0  0  0  0  0  0  0  0
   -2.6643    0.1645   -0.6949 O   0  0  0  0  0  0  0  0  0  0  0  0
   -1.7776    0.6401    0.2137 C   0  0  0  0  0  0  0  0  0  0  0  0
   -0.7539   -0.2666    0.3809 C   0  0  0  0  0  0  0  0  0  0  0  0
    0.4383   -0.0908    1.2721 C   0  0  0  0  0  0  0  0  0  0  0  0
    1.5778    0.7126    0.6244 C   0  0  2  0  0  0  0  0  0  0  0  0
    1.1086    2.0400    0.1539 N   0  0  0  0  0  0  0  0  0  0  0  0
    2.1642   -0.1094   -0.5206 C   0  0  0  0  0  0  0  0  0  0  0  0
    1.9036    0.0119   -1.7065 O   0  0  0  0  0  0  0  0  0  0  0  0
    2.9513   -1.1050   -0.0598 O   0  0  0  0  0  0  0  0  0  0  0  0
   -2.0225    1.9916    0.7657 C   0  0  0  0  0  0  0  0  0  0  0  0
   -1.7766   -2.9493   -2.0132 H   0  0  0  0  0  0  0  0  0  0  0  0
    0.1226    0.4336    2.1839 H   0  0  0  0  0  0  0  0  0  0  0  0
    0.7991   -1.0705    1.6046 H   0  0  0  0  0  0  0  0  0  0  0  0
    2.3723    0.8818    1.3592 H   0  0  0  0  0  0  0  0  0  0  0  0
    0.6127    1.8923   -0.7319 H   0  0  0  0  0  0  0  0  0  0  0  0
    1.9102    2.6188   -0.0877 H   0  0  0  0  0  0  0  0  0  0  0  0
    3.0011   -1.7641   -0.7845 H   0  0  0  0  0  0  0  0  0  0  0  0
   -1.7666    2.7580    0.0261 H   0  0  0  0  0  0  0  0  0  0  0  0
   -3.0645    2.1230    1.0628 H   0  0  0  0  0  0  0  0  0  0  0  0
   -1.3981    2.1677    1.6485 H   0  0  0  0  0  0  0  0  0  0  0  0
  1  2  1  0  0  0  0
  2  4  1  0  0  0  0
  2  3  2  0  0  0  0
  4  8  1  0  0  0  0
  5  6  1  0  0  0  0
  5  4  2  0  0  0  0
  6  7  1  0  0  0  0
  7  8  2  0  0  0  0
  7 15  1  0  0  0  0
  8  9  1  0  0  0  0
  9 18  1  0  0  0  0
  9 17  1  0  0  0  0
 10  9  1  0  0  0  0
 10 19  1  1  0  0  0
 11 10  1  0  0  0  0
 12 14  1  0  0  0  0
 12 10  1  0  0  0  0
 13 12  2  0  0  0  0
 15 24  1  0  0  0  0
 15 25  1  0  0  0  0
 16  1  1  0  0  0  0
 20 11  1  0  0  0  0
 21 11  1  0  0  0  0
 22 14  1  0  0  0  0
 23 15  1  0  0  0  0
M  END
