-84.2265
 OpenBabel10231816213D

 35 36  0  0  0  0  0  0  0  0999 V2000
   -3.9520    1.0701    0.1910 N   0  0  0  0  0  0  0  0  0  0  0  0
   -4.0085    0.2734   -0.8768 C   0  0  0  0  0  0  0  0  0  0  0  0
   -3.2361   -0.7996   -1.0638 N   0  0  0  0  0  0  0  0  0  0  0  0
   -2.3038   -1.0621   -0.1327 C   0  0  0  0  0  0  0  0  0  0  0  0
   -2.1328   -0.2808    0.9970 C   0  0  0  0  0  0  0  0  0  0  0  0
   -3.0119    0.7767    1.1058 C   0  0  0  0  0  0  0  0  0  0  0  0
   -1.0481   -0.5241    2.0084 C   0  0  0  0  0  0  0  0  0  0  0  0
    0.3685   -0.3924    1.4708 C   0  0  0  0  0  0  0  0  0  0  0  0
    0.7112    0.6095    0.5401 C   0  0  0  0  0  0  0  0  0  0  0  0
    2.0138    0.7233    0.0369 C   0  0  0  0  0  0  0  0  0  0  0  0
    2.9882   -0.1824    0.4791 C   0  0  0  0  0  0  0  0  0  0  0  0
    2.6732   -1.1570    1.4274 C   0  0  0  0  0  0  0  0  0  0  0  0
    1.3699   -1.2646    1.9177 C   0  0  0  0  0  0  0  0  0  0  0  0
    4.3052   -0.0852    0.1032 O   0  0  0  0  0  0  0  0  0  0  0  0
    4.5068   -0.5455   -1.2323 C   0  0  0  0  0  0  0  0  0  0  0  0
    2.4233    1.6805   -0.8536 O   0  0  0  0  0  0  0  0  0  0  0  0
    1.4407    2.5828   -1.3435 C   0  0  0  0  0  0  0  0  0  0  0  0
   -1.5536   -2.2209   -0.3294 N   0  0  0  0  0  0  0  0  0  0  0  0
   -4.9436    0.5668   -1.8471 N   0  0  0  0  0  0  0  0  0  0  0  0
   -2.9784    1.4586    1.9531 H   0  0  0  0  0  0  0  0  0  0  0  0
   -1.1993   -1.5287    2.4251 H   0  0  0  0  0  0  0  0  0  0  0  0
   -1.1505    0.1732    2.8551 H   0  0  0  0  0  0  0  0  0  0  0  0
   -0.0617    1.2979    0.2130 H   0  0  0  0  0  0  0  0  0  0  0  0
    3.4497   -1.8266    1.7887 H   0  0  0  0  0  0  0  0  0  0  0  0
    1.1470   -2.0354    2.6533 H   0  0  0  0  0  0  0  0  0  0  0  0
    5.5643   -0.4027   -1.4753 H   0  0  0  0  0  0  0  0  0  0  0  0
    4.2845   -1.6152   -1.3096 H   0  0  0  0  0  0  0  0  0  0  0  0
    3.9209    0.0159   -1.9662 H   0  0  0  0  0  0  0  0  0  0  0  0
    1.9326    3.2632   -2.0455 H   0  0  0  0  0  0  0  0  0  0  0  0
    0.6542    2.0523   -1.8902 H   0  0  0  0  0  0  0  0  0  0  0  0
    1.0223    3.1879   -0.5326 H   0  0  0  0  0  0  0  0  0  0  0  0
   -1.7513   -2.5644   -1.2679 H   0  0  0  0  0  0  0  0  0  0  0  0
   -0.5619   -2.0805   -0.1804 H   0  0  0  0  0  0  0  0  0  0  0  0
   -5.7048    1.1001   -1.4505 H   0  0  0  0  0  0  0  0  0  0  0  0
   -5.1778   -0.2641   -2.3685 H   0  0  0  0  0  0  0  0  0  0  0  0
  1  6  2  0  0  0  0
  2  1  1  0  0  0  0
  3  2  2  0  0  0  0
  3  4  1  0  0  0  0
  4  5  2  0  0  0  0
  5  6  1  0  0  0  0
  5  7  1  0  0  0  0
  6 20  1  0  0  0  0
  7 21  1  0  0  0  0
  7 22  1  0  0  0  0
  8 13  1  0  0  0  0
  8  7  1  0  0  0  0
  9  8  2  0  0  0  0
 10 11  2  0  0  0  0
 10  9  1  0  0  0  0
 11 12  1  0  0  0  0
 12 24  1  0  0  0  0
 12 13  2  0  0  0  0
 13 25  1  0  0  0  0
 14 11  1  0  0  0  0
 15 14  1  0  0  0  0
 16 10  1  0  0  0  0
 17 16  1  0  0  0  0
 17 31  1  0  0  0  0
 18 33  1  0  0  0  0
 18  4  1  0  0  0  0
 19 34  1  0  0  0  0
 19  2  1  0  0  0  0
 23  9  1  0  0  0  0
 26 15  1  0  0  0  0
 27 15  1  0  0  0  0
 28 15  1  0  0  0  0
 29 17  1  0  0  0  0
 30 17  1  0  0  0  0
 32 18  1  0  0  0  0
 35 19  1  0  0  0  0
M  END
