-85.3716
 OpenBabel10231816213D

 35 36  0  0  0  0  0  0  0  0999 V2000
   -3.7572    1.0708    1.2645 N   0  0  0  0  0  0  0  0  0  0  0  0
   -4.0791    1.0355   -0.0222 C   0  0  0  0  0  0  0  0  0  0  0  0
   -3.5407    0.2238   -0.9388 N   0  0  0  0  0  0  0  0  0  0  0  0
   -2.5742   -0.6077   -0.5190 C   0  0  0  0  0  0  0  0  0  0  0  0
   -2.1136   -0.6220    0.7869 C   0  0  0  0  0  0  0  0  0  0  0  0
   -2.7684    0.2422    1.6552 C   0  0  0  0  0  0  0  0  0  0  0  0
   -0.9840   -1.4897    1.2665 C   0  0  0  0  0  0  0  0  0  0  0  0
    0.3823   -0.8622    1.0950 C   0  0  0  0  0  0  0  0  0  0  0  0
    1.0706   -0.9664   -0.1270 C   0  0  0  0  0  0  0  0  0  0  0  0
    2.3060   -0.3376   -0.3037 C   0  0  0  0  0  0  0  0  0  0  0  0
    2.8657    0.4016    0.7311 C   0  0  0  0  0  0  0  0  0  0  0  0
    2.2179    0.4788    1.9637 C   0  0  0  0  0  0  0  0  0  0  0  0
    0.9763   -0.1456    2.1367 C   0  0  0  0  0  0  0  0  0  0  0  0
    4.1100    0.9708    0.6281 O   0  0  0  0  0  0  0  0  0  0  0  0
    4.0928    2.1683   -0.1541 C   0  0  0  0  0  0  0  0  0  0  0  0
    3.0462   -0.3942   -1.4540 O   0  0  0  0  0  0  0  0  0  0  0  0
    2.4852   -1.1303   -2.5299 C   0  0  0  0  0  0  0  0  0  0  0  0
   -1.9886   -1.3967   -1.5152 N   0  0  0  0  0  0  0  0  0  0  0  0
   -5.0424    1.9103   -0.4620 N   0  0  0  0  0  0  0  0  0  0  0  0
   -2.5133    0.3001    2.7114 H   0  0  0  0  0  0  0  0  0  0  0  0
   -1.0011   -2.4630    0.7558 H   0  0  0  0  0  0  0  0  0  0  0  0
   -1.1278   -1.7376    2.3263 H   0  0  0  0  0  0  0  0  0  0  0  0
    0.6260   -1.5354   -0.9334 H   0  0  0  0  0  0  0  0  0  0  0  0
    2.6757    1.0307    2.7746 H   0  0  0  0  0  0  0  0  0  0  0  0
    0.4737   -0.0675    3.0985 H   0  0  0  0  0  0  0  0  0  0  0  0
    3.7550    2.0072   -1.1846 H   0  0  0  0  0  0  0  0  0  0  0  0
    3.4718    2.9379    0.3210 H   0  0  0  0  0  0  0  0  0  0  0  0
    5.1264    2.5309   -0.1888 H   0  0  0  0  0  0  0  0  0  0  0  0
    1.5274   -0.7067   -2.8524 H   0  0  0  0  0  0  0  0  0  0  0  0
    3.1962   -1.0556   -3.3540 H   0  0  0  0  0  0  0  0  0  0  0  0
    2.3656   -2.1863   -2.2641 H   0  0  0  0  0  0  0  0  0  0  0  0
   -2.5464   -1.3768   -2.3647 H   0  0  0  0  0  0  0  0  0  0  0  0
   -1.7265   -2.3263   -1.2258 H   0  0  0  0  0  0  0  0  0  0  0  0
   -5.5836    2.3655    0.2533 H   0  0  0  0  0  0  0  0  0  0  0  0
   -5.4239    1.7334   -1.3750 H   0  0  0  0  0  0  0  0  0  0  0  0
  1  6  1  0  0  0  0
  2  1  2  0  0  0  0
  3  4  2  0  0  0  0
  3  2  1  0  0  0  0
  4  5  1  0  0  0  0
  5  7  1  0  0  0  0
  5  6  2  0  0  0  0
  6 20  1  0  0  0  0
  7 22  1  0  0  0  0
  8  7  1  0  0  0  0
  8 13  2  0  0  0  0
  9  8  1  0  0  0  0
 10  9  2  0  0  0  0
 10 11  1  0  0  0  0
 11 12  2  0  0  0  0
 12 13  1  0  0  0  0
 12 24  1  0  0  0  0
 13 25  1  0  0  0  0
 14 11  1  0  0  0  0
 15 27  1  0  0  0  0
 15 14  1  0  0  0  0
 16 10  1  0  0  0  0
 17 31  1  0  0  0  0
 17 16  1  0  0  0  0
 18 33  1  0  0  0  0
 18  4  1  0  0  0  0
 19  2  1  0  0  0  0
 19 34  1  0  0  0  0
 21  7  1  0  0  0  0
 23  9  1  0  0  0  0
 26 15  1  0  0  0  0
 28 15  1  0  0  0  0
 29 17  1  0  0  0  0
 30 17  1  0  0  0  0
 32 18  1  0  0  0  0
 35 19  1  0  0  0  0
M  END
