-62.127
 OpenBabel10231816213D

 39 40  0  0  0  0  0  0  0  0999 V2000
    1.1353    0.2224    2.1992 S   0  0  0  0  0  0  0  0  0  0  0  0
   -0.1754    0.7468    2.5314 O   0  0  0  0  0  0  0  0  0  0  0  0
    2.0932   -0.0848    3.2357 O   0  0  0  0  0  0  0  0  0  0  0  0
    1.7722    1.3187    1.1334 N   0  0  0  0  0  0  0  0  0  0  0  0
    3.0771    1.5887    0.7018 C   0  0  0  0  0  0  0  0  0  0  0  0
    3.2525    2.5527   -0.0228 O   0  0  0  0  0  0  0  0  0  0  0  0
    4.2143    0.6959    1.1294 C   0  0  0  0  0  0  0  0  0  0  0  0
    4.8744    1.2170    2.3926 C   0  0  0  0  0  0  0  0  0  0  0  0
    0.8988   -1.2201    1.2196 C   0  0  0  0  0  0  0  0  0  0  0  0
   -0.1563   -1.3163    0.3119 C   0  0  0  0  0  0  0  0  0  0  0  0
   -0.9961   -0.2164    0.0942 N   0  0  0  0  0  0  0  0  0  0  0  0
   -1.8462    0.0532   -0.9759 C   0  0  0  0  0  0  0  0  0  0  0  0
   -3.0789    0.6422   -0.7122 C   0  0  0  0  0  0  0  0  0  0  0  0
   -3.9877    0.8823   -1.7398 C   0  0  0  0  0  0  0  0  0  0  0  0
   -3.6453    0.5194   -3.0412 C   0  0  0  0  0  0  0  0  0  0  0  0
   -2.4214   -0.0830   -3.3226 C   0  0  0  0  0  0  0  0  0  0  0  0
   -1.5274   -0.3114   -2.2863 C   0  0  0  0  0  0  0  0  0  0  0  0
   -5.3159    1.5104   -1.4514 C   0  0  0  0  0  0  0  0  0  0  0  0
   -5.4315    1.9397   -0.1646 F   0  0  0  0  0  0  0  0  0  0  0  0
   -5.5621    2.5963   -2.2333 F   0  0  0  0  0  0  0  0  0  0  0  0
   -6.3495    0.6506   -1.6574 F   0  0  0  0  0  0  0  0  0  0  0  0
   -0.2898   -2.5032   -0.4217 C   0  0  0  0  0  0  0  0  0  0  0  0
    0.6146   -3.5246   -0.2230 C   0  0  0  0  0  0  0  0  0  0  0  0
    1.6286   -3.4502    0.6652 N   0  0  0  0  0  0  0  0  0  0  0  0
    1.7357   -2.3044    1.3817 C   0  0  0  0  0  0  0  0  0  0  0  0
    1.0904    2.0046    0.8191 H   0  0  0  0  0  0  0  0  0  0  0  0
    4.9419    0.6944    0.3093 H   0  0  0  0  0  0  0  0  0  0  0  0
    3.8864   -0.3388    1.2513 H   0  0  0  0  0  0  0  0  0  0  0  0
    5.2235    2.2445    2.2544 H   0  0  0  0  0  0  0  0  0  0  0  0
    4.1792    1.2213    3.2349 H   0  0  0  0  0  0  0  0  0  0  0  0
    5.7328    0.5963    2.6674 H   0  0  0  0  0  0  0  0  0  0  0  0
   -1.1446    0.3728    0.9185 H   0  0  0  0  0  0  0  0  0  0  0  0
   -3.3378    0.9102    0.3115 H   0  0  0  0  0  0  0  0  0  0  0  0
   -4.3517    0.6951   -3.8572 H   0  0  0  0  0  0  0  0  0  0  0  0
   -2.1582   -0.3605   -4.3391 H   0  0  0  0  0  0  0  0  0  0  0  0
   -0.5600   -0.7566   -2.5058 H   0  0  0  0  0  0  0  0  0  0  0  0
   -1.1056   -2.6522   -1.1270 H   0  0  0  0  0  0  0  0  0  0  0  0
    0.5374   -4.4571   -0.7765 H   0  0  0  0  0  0  0  0  0  0  0  0
    2.5530   -2.2960    2.0956 H   0  0  0  0  0  0  0  0  0  0  0  0
  1  2  2  0  0  0  0
  1  3  2  0  0  0  0
  4  1  1  0  0  0  0
  5  7  1  0  0  0  0
  5  4  1  0  0  0  0
  6  5  2  0  0  0  0
  7 28  1  0  0  0  0
  7  8  1  0  0  0  0
  8 31  1  0  0  0  0
  8 30  1  0  0  0  0
  9 25  1  0  0  0  0
  9  1  1  0  0  0  0
 10  9  2  0  0  0  0
 11 10  1  0  0  0  0
 11 32  1  0  0  0  0
 12 13  1  0  0  0  0
 12 11  1  0  0  0  0
 13 33  1  0  0  0  0
 14 18  1  0  0  0  0
 14 13  2  0  0  0  0
 15 14  1  0  0  0  0
 16 15  2  0  0  0  0
 16 17  1  0  0  0  0
 17 12  2  0  0  0  0
 18 19  1  0  0  0  0
 20 18  1  0  0  0  0
 21 18  1  0  0  0  0
 22 23  2  0  0  0  0
 22 10  1  0  0  0  0
 23 24  1  0  0  0  0
 24 25  2  0  0  0  0
 25 39  1  0  0  0  0
 26  4  1  0  0  0  0
 27  7  1  0  0  0  0
 29  8  1  0  0  0  0
 34 15  1  0  0  0  0
 35 16  1  0  0  0  0
 36 17  1  0  0  0  0
 37 22  1  0  0  0  0
 38 23  1  0  0  0  0
M  END
