-56.9059
 OpenBabel10231816213D

 39 40  0  0  0  0  0  0  0  0999 V2000
    1.2957    0.9784    0.7331 S   0  0  0  0  0  0  0  0  0  0  0  0
   -0.0180    1.1397    1.3331 O   0  0  0  0  0  0  0  0  0  0  0  0
    1.8541    2.0446   -0.0649 O   0  0  0  0  0  0  0  0  0  0  0  0
    2.2699    0.6499    2.0296 N   0  0  0  0  0  0  0  0  0  0  0  0
    3.6577    0.8180    2.0204 C   0  0  0  0  0  0  0  0  0  0  0  0
    4.3068    0.8740    0.9889 O   0  0  0  0  0  0  0  0  0  0  0  0
    4.2584    0.8836    3.4018 C   0  0  0  0  0  0  0  0  0  0  0  0
    5.7679    0.7651    3.3592 C   0  0  0  0  0  0  0  0  0  0  0  0
    1.2365   -0.4741   -0.2504 C   0  0  0  0  0  0  0  0  0  0  0  0
    0.1544   -0.7001   -1.1049 C   0  0  0  0  0  0  0  0  0  0  0  0
   -0.9294    0.1929   -1.1997 N   0  0  0  0  0  0  0  0  0  0  0  0
   -2.3073   -0.0964   -1.2379 C   0  0  0  0  0  0  0  0  0  0  0  0
   -3.1732    0.9328   -1.6124 C   0  0  0  0  0  0  0  0  0  0  0  0
   -4.5451    0.7063   -1.7412 C   0  0  0  0  0  0  0  0  0  0  0  0
   -5.0489   -0.5813   -1.4935 C   0  0  0  0  0  0  0  0  0  0  0  0
   -4.1965   -1.6086   -1.1038 C   0  0  0  0  0  0  0  0  0  0  0  0
   -2.8313   -1.3653   -0.9717 C   0  0  0  0  0  0  0  0  0  0  0  0
   -5.4607    1.8180   -2.1722 C   0  0  0  0  0  0  0  0  0  0  0  0
   -4.8554    3.0390   -2.2093 F   0  0  0  0  0  0  0  0  0  0  0  0
   -5.9682    1.6153   -3.4190 F   0  0  0  0  0  0  0  0  0  0  0  0
   -6.5345    1.9611   -1.3475 F   0  0  0  0  0  0  0  0  0  0  0  0
    0.1610   -1.8742   -1.8697 C   0  0  0  0  0  0  0  0  0  0  0  0
    1.1955   -2.7790   -1.7190 C   0  0  0  0  0  0  0  0  0  0  0  0
    2.2255   -2.5891   -0.8743 N   0  0  0  0  0  0  0  0  0  0  0  0
    2.2330   -1.4302   -0.1706 C   0  0  0  0  0  0  0  0  0  0  0  0
    1.7504    0.6273    2.9030 H   0  0  0  0  0  0  0  0  0  0  0  0
    3.9632    1.8358    3.8570 H   0  0  0  0  0  0  0  0  0  0  0  0
    3.8403    0.0694    4.0041 H   0  0  0  0  0  0  0  0  0  0  0  0
    6.2062    1.5690    2.7580 H   0  0  0  0  0  0  0  0  0  0  0  0
    6.0685   -0.1883    2.9115 H   0  0  0  0  0  0  0  0  0  0  0  0
    6.1834    0.8213    4.3679 H   0  0  0  0  0  0  0  0  0  0  0  0
   -0.7905    1.0959   -0.7429 H   0  0  0  0  0  0  0  0  0  0  0  0
   -2.7659    1.9222   -1.8170 H   0  0  0  0  0  0  0  0  0  0  0  0
   -6.1122   -0.7844   -1.6055 H   0  0  0  0  0  0  0  0  0  0  0  0
   -4.5834   -2.6052   -0.9026 H   0  0  0  0  0  0  0  0  0  0  0  0
   -2.1913   -2.1755   -0.6351 H   0  0  0  0  0  0  0  0  0  0  0  0
   -0.6335   -2.0824   -2.5797 H   0  0  0  0  0  0  0  0  0  0  0  0
    1.2157   -3.7026   -2.2901 H   0  0  0  0  0  0  0  0  0  0  0  0
    3.1013   -1.3229    0.4675 H   0  0  0  0  0  0  0  0  0  0  0  0
  1  2  2  0  0  0  0
  1  4  1  0  0  0  0
  3  1  2  0  0  0  0
  4 26  1  0  0  0  0
  5  4  1  0  0  0  0
  5  7  1  0  0  0  0
  6  5  2  0  0  0  0
  7 27  1  0  0  0  0
  7 28  1  0  0  0  0
  8  7  1  0  0  0  0
  8 31  1  0  0  0  0
  9 25  1  0  0  0  0
  9  1  1  0  0  0  0
 10  9  2  0  0  0  0
 11 10  1  0  0  0  0
 11 32  1  0  0  0  0
 12 11  1  0  0  0  0
 12 17  2  0  0  0  0
 13 12  1  0  0  0  0
 14 13  2  0  0  0  0
 14 15  1  0  0  0  0
 15 16  2  0  0  0  0
 16 17  1  0  0  0  0
 16 35  1  0  0  0  0
 17 36  1  0  0  0  0
 18 14  1  0  0  0  0
 18 21  1  0  0  0  0
 19 18  1  0  0  0  0
 20 18  1  0  0  0  0
 22 23  2  0  0  0  0
 22 10  1  0  0  0  0
 23 24  1  0  0  0  0
 24 25  2  0  0  0  0
 25 39  1  0  0  0  0
 29  8  1  0  0  0  0
 30  8  1  0  0  0  0
 33 13  1  0  0  0  0
 34 15  1  0  0  0  0
 37 22  1  0  0  0  0
 38 23  1  0  0  0  0
M  END
