0.750279
 OpenBabel10231816213D

 45 47  0  0  0  0  0  0  0  0999 V2000
   -4.6014   -2.4350   -0.7754 O   0  0  0  0  0  0  0  0  0  0  0  0
   -5.0458   -1.1333   -0.7252 N   0  0  0  0  0  0  0  0  0  0  0  0
   -3.9649   -0.3783   -0.4802 C   0  0  0  0  0  0  0  0  0  0  0  0
   -2.7841   -1.1850   -0.4061 C   0  0  0  0  0  0  0  0  0  0  0  0
   -1.4221   -0.7328   -0.1731 C   0  0  0  0  0  0  0  0  0  0  0  0
   -1.2057    0.3212    0.4149 O   0  0  0  0  0  0  0  0  0  0  0  0
   -0.4378   -1.5688   -0.6822 N   0  0  0  0  0  0  0  0  0  0  0  0
    0.9219   -1.3406   -0.5734 C   0  0  0  0  0  0  0  0  0  0  0  0
    1.8801   -2.1791   -1.1046 C   0  0  0  0  0  0  0  0  0  0  0  0
    3.1210   -1.6519   -0.8233 N   0  0  0  0  0  0  0  0  0  0  0  0
    4.3741   -2.2554   -1.2271 C   0  0  0  0  0  0  0  0  0  0  0  0
    2.9803   -0.4790   -0.1092 C   0  0  0  0  0  0  0  0  0  0  0  0
    1.6130   -0.2822    0.0494 C   0  0  0  0  0  0  0  0  0  0  0  0
    4.0704    0.3452    0.3571 C   0  0  0  0  0  0  0  0  0  0  0  0
    5.2588    0.1132    0.1779 O   0  0  0  0  0  0  0  0  0  0  0  0
    3.5851    1.4178    1.0392 O   0  0  0  0  0  0  0  0  0  0  0  0
    4.5752    2.3121    1.5623 C   0  0  0  0  0  0  0  0  0  0  0  0
    5.1087    1.7901    2.8828 C   0  0  0  0  0  0  0  0  0  0  0  0
   -3.2595   -2.4739   -0.5659 C   0  0  0  0  0  0  0  0  0  0  0  0
   -2.6687   -3.8284   -0.5436 C   0  0  0  0  0  0  0  0  0  0  0  0
   -4.0845    1.0694   -0.3664 C   0  0  0  0  0  0  0  0  0  0  0  0
   -4.4324    1.6584    0.8558 C   0  0  0  0  0  0  0  0  0  0  0  0
   -4.5126    3.0491    0.9680 C   0  0  0  0  0  0  0  0  0  0  0  0
   -4.2547    3.8565   -0.1390 C   0  0  0  0  0  0  0  0  0  0  0  0
   -3.9207    3.2750   -1.3620 C   0  0  0  0  0  0  0  0  0  0  0  0
   -3.8369    1.8846   -1.4776 C   0  0  0  0  0  0  0  0  0  0  0  0
   -0.7059   -2.3760   -1.2241 H   0  0  0  0  0  0  0  0  0  0  0  0
    1.7926   -3.1034   -1.6589 H   0  0  0  0  0  0  0  0  0  0  0  0
    4.8639   -2.6632   -0.3397 H   0  0  0  0  0  0  0  0  0  0  0  0
    4.1739   -3.0569   -1.9421 H   0  0  0  0  0  0  0  0  0  0  0  0
    4.9973   -1.4997   -1.7096 H   0  0  0  0  0  0  0  0  0  0  0  0
    1.1729    0.5635    0.5661 H   0  0  0  0  0  0  0  0  0  0  0  0
    4.0847    3.2786    1.7146 H   0  0  0  0  0  0  0  0  0  0  0  0
    5.3808    2.4704    0.8373 H   0  0  0  0  0  0  0  0  0  0  0  0
    5.8271    2.4922    3.3124 H   0  0  0  0  0  0  0  0  0  0  0  0
    5.6042    0.8219    2.7538 H   0  0  0  0  0  0  0  0  0  0  0  0
    4.2918    1.6341    3.5950 H   0  0  0  0  0  0  0  0  0  0  0  0
   -2.3201   -4.1052   -1.5436 H   0  0  0  0  0  0  0  0  0  0  0  0
   -1.8198   -3.8805    0.1451 H   0  0  0  0  0  0  0  0  0  0  0  0
   -3.3995   -4.5757   -0.2190 H   0  0  0  0  0  0  0  0  0  0  0  0
   -4.6297    1.0399    1.7279 H   0  0  0  0  0  0  0  0  0  0  0  0
   -4.7679    3.5039    1.9220 H   0  0  0  0  0  0  0  0  0  0  0  0
   -4.3096    4.9389   -0.0492 H   0  0  0  0  0  0  0  0  0  0  0  0
   -3.7187    3.9045   -2.2251 H   0  0  0  0  0  0  0  0  0  0  0  0
   -3.5753    1.4438   -2.4359 H   0  0  0  0  0  0  0  0  0  0  0  0
  1  2  1  0  0  0  0
  1 19  1  0  0  0  0
  2  3  2  0  0  0  0
  3  4  1  0  0  0  0
  3 21  1  0  0  0  0
  4  5  1  0  0  0  0
  5  6  2  0  0  0  0
  7  8  1  0  0  0  0
  7  5  1  0  0  0  0
  8 13  1  0  0  0  0
  9 10  1  0  0  0  0
  9  8  2  0  0  0  0
 10 12  1  0  0  0  0
 11 10  1  0  0  0  0
 11 29  1  0  0  0  0
 12 13  2  0  0  0  0
 12 14  1  0  0  0  0
 13 32  1  0  0  0  0
 14 16  1  0  0  0  0
 15 14  2  0  0  0  0
 16 17  1  0  0  0  0
 17 33  1  0  0  0  0
 17 18  1  0  0  0  0
 18 35  1  0  0  0  0
 18 37  1  0  0  0  0
 19 20  1  0  0  0  0
 19  4  2  0  0  0  0
 20 40  1  0  0  0  0
 20 39  1  0  0  0  0
 21 22  2  0  0  0  0
 22 23  1  0  0  0  0
 22 41  1  0  0  0  0
 23 42  1  0  0  0  0
 24 43  1  0  0  0  0
 24 23  2  0  0  0  0
 25 24  1  0  0  0  0
 26 25  2  0  0  0  0
 26 21  1  0  0  0  0
 27  7  1  0  0  0  0
 28  9  1  0  0  0  0
 30 11  1  0  0  0  0
 31 11  1  0  0  0  0
 34 17  1  0  0  0  0
 36 18  1  0  0  0  0
 38 20  1  0  0  0  0
 44 25  1  0  0  0  0
 45 26  1  0  0  0  0
M  END
