49.2744
 OpenBabel10231816213D

 40 42  0  0  0  0  0  0  0  0999 V2000
    6.4767    0.6646    2.8310 O   0  0  0  0  0  0  0  0  0  0  0  0
    5.6237    1.3668    2.2609 C   0  0  0  0  0  0  0  0  0  0  0  0
    5.7781    2.8547    2.1599 C   0  0  0  0  0  0  0  0  0  0  0  0
    4.4183    0.7213    1.6616 C   0  0  0  0  0  0  0  0  0  0  0  0
    3.4258    1.4568    1.0087 C   0  0  0  0  0  0  0  0  0  0  0  0
    2.3117    0.8099    0.4622 C   0  0  0  0  0  0  0  0  0  0  0  0
    2.1756   -0.5740    0.5605 C   0  0  0  0  0  0  0  0  0  0  0  0
    3.1699   -1.3111    1.2140 C   0  0  0  0  0  0  0  0  0  0  0  0
    4.2844   -0.6667    1.7616 C   0  0  0  0  0  0  0  0  0  0  0  0
    1.0858   -1.2911    0.0278 N   0  0  0  0  0  0  0  0  0  0  0  0
   -0.0168   -0.7799   -0.6293 C   0  0  0  0  0  0  0  0  0  0  0  0
   -0.2338    0.4147   -0.7991 O   0  0  0  0  0  0  0  0  0  0  0  0
   -0.9584   -1.7985   -1.1167 C   0  0  0  0  0  0  0  0  0  0  0  0
   -0.6804   -3.1366   -1.5133 C   0  0  0  0  0  0  0  0  0  0  0  0
   -1.7598   -3.7925   -1.9381 N   0  0  0  0  0  0  0  0  0  0  0  0
   -2.7447   -2.8874   -1.8263 N   0  0  0  0  0  0  0  0  0  0  0  0
   -2.3367   -1.6677   -1.3228 C   0  0  0  0  0  0  0  0  0  0  0  0
   -3.2888   -0.5598   -1.1318 C   0  0  0  0  0  0  0  0  0  0  0  0
   -3.0633    0.6797   -1.7578 C   0  0  0  0  0  0  0  0  0  0  0  0
   -4.0071    1.7117   -1.6790 C   0  0  0  0  0  0  0  0  0  0  0  0
   -3.7042    3.2132   -2.4747 Cl  0  0  0  0  0  0  0  0  0  0  0  0
   -5.1900    1.5196   -0.9675 C   0  0  0  0  0  0  0  0  0  0  0  0
   -6.1562    2.4838   -0.8732 O   0  0  0  0  0  0  0  0  0  0  0  0
   -5.4209    0.3173   -0.3103 C   0  0  0  0  0  0  0  0  0  0  0  0
   -4.4715   -0.7054   -0.3826 C   0  0  0  0  0  0  0  0  0  0  0  0
   -4.7828   -1.8396    0.3196 O   0  0  0  0  0  0  0  0  0  0  0  0
    4.9494    3.3626    2.6597 H   0  0  0  0  0  0  0  0  0  0  0  0
    6.7119    3.1480    2.6518 H   0  0  0  0  0  0  0  0  0  0  0  0
    5.8254    3.1665    1.1134 H   0  0  0  0  0  0  0  0  0  0  0  0
    3.4931    2.5362    0.9104 H   0  0  0  0  0  0  0  0  0  0  0  0
    1.5549    1.4058   -0.0374 H   0  0  0  0  0  0  0  0  0  0  0  0
    3.0895   -2.3923    1.3030 H   0  0  0  0  0  0  0  0  0  0  0  0
    5.0573   -1.2405    2.2700 H   0  0  0  0  0  0  0  0  0  0  0  0
    1.1019   -2.2834    0.2008 H   0  0  0  0  0  0  0  0  0  0  0  0
    0.2694   -3.6620   -1.5331 H   0  0  0  0  0  0  0  0  0  0  0  0
   -3.6779   -3.1634   -2.1247 H   0  0  0  0  0  0  0  0  0  0  0  0
   -2.1424    0.8529   -2.3101 H   0  0  0  0  0  0  0  0  0  0  0  0
   -5.8523    3.2640   -1.3741 H   0  0  0  0  0  0  0  0  0  0  0  0
   -6.3339    0.1695    0.2613 H   0  0  0  0  0  0  0  0  0  0  0  0
   -3.9808   -2.3682    0.4635 H   0  0  0  0  0  0  0  0  0  0  0  0
  2  1  2  0  0  0  0
  3  2  1  0  0  0  0
  3 28  1  0  0  0  0
  3 27  1  0  0  0  0
  4  9  1  0  0  0  0
  4  2  1  0  0  0  0
  5  4  2  0  0  0  0
  6  7  2  0  0  0  0
  6  5  1  0  0  0  0
  7  8  1  0  0  0  0
  8 32  1  0  0  0  0
  8  9  2  0  0  0  0
  9 33  1  0  0  0  0
 10 34  1  0  0  0  0
 10  7  1  0  0  0  0
 11 10  1  0  0  0  0
 12 11  2  0  0  0  0
 13 11  1  0  0  0  0
 14 13  1  0  0  0  0
 15 16  1  0  0  0  0
 15 14  2  0  0  0  0
 16 17  1  0  0  0  0
 17 18  1  0  0  0  0
 17 13  2  0  0  0  0
 18 25  2  0  0  0  0
 19 20  2  0  0  0  0
 19 18  1  0  0  0  0
 20 22  1  0  0  0  0
 21 20  1  0  0  0  0
 22 23  1  0  0  0  0
 22 24  2  0  0  0  0
 24 39  1  0  0  0  0
 25 24  1  0  0  0  0
 25 26  1  0  0  0  0
 26 40  1  0  0  0  0
 29  3  1  0  0  0  0
 30  5  1  0  0  0  0
 31  6  1  0  0  0  0
 35 14  1  0  0  0  0
 36 16  1  0  0  0  0
 37 19  1  0  0  0  0
 38 23  1  0  0  0  0
M  END
