48.4558
 OpenBabel10231816213D

 25 25  0  0  1  0  0  0  0  0999 V2000
   -0.1364   -2.5581   -1.5171 O   0  0  0  0  0  0  0  0  0  0  0  0
   -1.4692   -2.3050   -1.4175 C   0  0  0  0  0  0  0  0  0  0  0  0
   -2.2458   -3.0681   -1.9745 O   0  0  0  0  0  0  0  0  0  0  0  0
   -1.8212   -1.1215   -0.6343 C   0  0  0  0  0  0  0  0  0  0  0  0
   -3.0813   -0.6496   -0.6686 N   0  0  0  0  0  0  0  0  0  0  0  0
   -3.0965    0.4823    0.1171 O   0  0  0  0  0  0  0  0  0  0  0  0
   -1.8707    0.6818    0.6524 C   0  0  0  0  0  0  0  0  0  0  0  0
   -1.0153   -0.3140    0.2245 C   0  0  0  0  0  0  0  0  0  0  0  0
    0.4322   -0.4084    0.5839 C   0  0  0  0  0  0  0  0  0  0  0  0
    1.2677    0.6608   -0.1392 C   0  0  2  0  0  0  0  0  0  0  0  0
    1.1877    0.4807   -1.6095 N   0  0  0  0  0  0  0  0  0  0  0  0
    2.7196    0.6290    0.3389 C   0  0  0  0  0  0  0  0  0  0  0  0
    3.7143    0.6673   -0.3663 O   0  0  0  0  0  0  0  0  0  0  0  0
    2.8324    0.6534    1.6835 O   0  0  0  0  0  0  0  0  0  0  0  0
   -1.6951    1.8688    1.5039 C   0  0  0  0  0  0  0  0  0  0  0  0
   -0.1286   -3.3660   -2.0730 H   0  0  0  0  0  0  0  0  0  0  0  0
    0.8316   -1.4096    0.3871 H   0  0  0  0  0  0  0  0  0  0  0  0
    0.5198   -0.2816    1.6697 H   0  0  0  0  0  0  0  0  0  0  0  0
    0.8950    1.6654    0.0875 H   0  0  0  0  0  0  0  0  0  0  0  0
    1.9863    0.9546   -2.0417 H   0  0  0  0  0  0  0  0  0  0  0  0
    1.2970   -0.5087   -1.8353 H   0  0  0  0  0  0  0  0  0  0  0  0
    3.7978    0.7027    1.8533 H   0  0  0  0  0  0  0  0  0  0  0  0
   -1.6182    2.7693    0.8851 H   0  0  0  0  0  0  0  0  0  0  0  0
   -2.5292    1.9828    2.1968 H   0  0  0  0  0  0  0  0  0  0  0  0
   -0.7739    1.7914    2.0934 H   0  0  0  0  0  0  0  0  0  0  0  0
  1  2  1  0  0  0  0
  2  4  1  0  0  0  0
  3  2  2  0  0  0  0
  4  8  1  0  0  0  0
  5  4  2  0  0  0  0
  5  6  1  0  0  0  0
  6  7  1  0  0  0  0
  7 15  1  0  0  0  0
  8  9  1  0  0  0  0
  8  7  2  0  0  0  0
  9 18  1  0  0  0  0
 10 19  1  1  0  0  0
 10 12  1  0  0  0  0
 10  9  1  0  0  0  0
 11 10  1  0  0  0  0
 12 14  1  0  0  0  0
 13 12  2  0  0  0  0
 14 22  1  0  0  0  0
 15 25  1  0  0  0  0
 15 24  1  0  0  0  0
 16  1  1  0  0  0  0
 17  9  1  0  0  0  0
 20 11  1  0  0  0  0
 21 11  1  0  0  0  0
 23 15  1  0  0  0  0
M  END
