47.8496
 OpenBabel10231816213D

 36 36  0  0  1  0  0  0  0  0999 V2000
    4.9758    0.6626   -0.5807 C   0  0  0  0  0  0  0  0  0  0  0  0
    3.8716    1.6667   -0.7226 C   0  0  0  0  0  0  0  0  0  0  0  0
    3.8601    0.7087    0.4151 C   0  0  0  0  0  0  0  0  0  0  0  0
    2.9285   -0.3909    0.4989 N   0  0  0  0  0  0  0  0  0  0  0  0
    1.5143    0.0314    0.3724 C   0  0  0  0  0  0  0  0  0  0  0  0
    0.6597   -1.2069    0.7346 C   0  0  0  0  0  0  0  0  0  0  0  0
   -0.8332   -0.8569    0.9579 C   0  0  1  0  0  0  0  0  0  0  0  0
   -0.9443    0.0426    2.1227 N   0  0  0  0  0  0  0  0  0  0  0  0
   -1.4849   -0.2361   -0.2894 C   0  0  0  0  0  0  0  0  0  0  0  0
   -3.0028   -0.0545   -0.1600 C   0  0  0  0  0  0  0  0  0  0  0  0
   -3.6196    0.4429   -1.4692 C   0  0  0  0  0  0  0  0  0  0  0  0
   -5.1235    0.6684   -1.3511 C   0  0  0  0  0  0  0  0  0  0  0  0
    1.1598   -1.7850    1.9435 O   0  0  0  0  0  0  0  0  0  0  0  0
    0.8179   -2.1684   -0.2924 O   0  0  0  0  0  0  0  0  0  0  0  0
    5.0089   -0.1553   -1.2878 H   0  0  0  0  0  0  0  0  0  0  0  0
    5.9549    1.0059   -0.2591 H   0  0  0  0  0  0  0  0  0  0  0  0
    3.1578    1.5289   -1.5220 H   0  0  0  0  0  0  0  0  0  0  0  0
    4.0768    2.7093   -0.4950 H   0  0  0  0  0  0  0  0  0  0  0  0
    4.1266    1.1031    1.4082 H   0  0  0  0  0  0  0  0  0  0  0  0
    3.1016   -1.1304   -0.1755 H   0  0  0  0  0  0  0  0  0  0  0  0
    1.2948    0.3494   -0.6576 H   0  0  0  0  0  0  0  0  0  0  0  0
    1.3125    0.8530    1.0579 H   0  0  0  0  0  0  0  0  0  0  0  0
   -1.3463   -1.7984    1.1890 H   0  0  0  0  0  0  0  0  0  0  0  0
   -0.3865   -0.3634    2.8760 H   0  0  0  0  0  0  0  0  0  0  0  0
   -1.8941    0.0897    2.4417 H   0  0  0  0  0  0  0  0  0  0  0  0
   -1.2690   -0.8836   -1.1489 H   0  0  0  0  0  0  0  0  0  0  0  0
   -1.0235    0.7356   -0.4973 H   0  0  0  0  0  0  0  0  0  0  0  0
   -3.2182    0.6639    0.6380 H   0  0  0  0  0  0  0  0  0  0  0  0
   -3.4630   -1.0072    0.1281 H   0  0  0  0  0  0  0  0  0  0  0  0
   -3.1362    1.3802   -1.7673 H   0  0  0  0  0  0  0  0  0  0  0  0
   -3.4259   -0.2838   -2.2668 H   0  0  0  0  0  0  0  0  0  0  0  0
   -5.6475   -0.2578   -1.0933 H   0  0  0  0  0  0  0  0  0  0  0  0
   -5.5379    1.0302   -2.3005 H   0  0  0  0  0  0  0  0  0  0  0  0
   -5.3558    1.4141   -0.5837 H   0  0  0  0  0  0  0  0  0  0  0  0
    2.0960   -1.4869    1.9573 H   0  0  0  0  0  0  0  0  0  0  0  0
    0.7947   -3.0209    0.1789 H   0  0  0  0  0  0  0  0  0  0  0  0
  1 16  1  0  0  0  0
  1  3  1  0  0  0  0
  2  1  1  0  0  0  0
  2 18  1  0  0  0  0
  2  3  1  0  0  0  0
  3  4  1  0  0  0  0
  3 19  1  0  0  0  0
  5  4  1  0  0  0  0
  5  6  1  0  0  0  0
  5 22  1  0  0  0  0
  6  7  1  0  0  0  0
  6 13  1  0  0  0  0
  7 23  1  1  0  0  0
  7  8  1  0  0  0  0
  8 25  1  0  0  0  0
  8 24  1  0  0  0  0
  9 10  1  0  0  0  0
  9  7  1  0  0  0  0
 10 29  1  0  0  0  0
 10 28  1  0  0  0  0
 11 12  1  0  0  0  0
 11 10  1  0  0  0  0
 12 32  1  0  0  0  0
 12 34  1  0  0  0  0
 13 35  1  0  0  0  0
 14 36  1  0  0  0  0
 14  6  1  0  0  0  0
 15  1  1  0  0  0  0
 17  2  1  0  0  0  0
 20  4  1  0  0  0  0
 21  5  1  0  0  0  0
 26  9  1  0  0  0  0
 27  9  1  0  0  0  0
 30 11  1  0  0  0  0
 31 11  1  0  0  0  0
 33 12  1  0  0  0  0
M  END
