82.8405
 OpenBabel10231816213D

 44 47  0  0  1  0  0  0  0  0999 V2000
   -0.3156   -5.4817   -0.9928 Cl  0  0  0  0  0  0  0  0  0  0  0  0
   -0.9416   -3.8917   -0.8780 C   0  0  0  0  0  0  0  0  0  0  0  0
   -0.6265   -3.0835    0.1972 C   0  0  0  0  0  0  0  0  0  0  0  0
   -1.0470   -1.8037    0.3234 N   0  0  0  0  0  0  0  0  0  0  0  0
   -1.8552   -1.2980   -0.6376 C   0  0  0  0  0  0  0  0  0  0  0  0
   -2.2573    0.0318   -0.4620 N   0  0  0  0  0  0  0  0  0  0  0  0
   -3.2380    0.7281   -1.1557 C   0  0  0  0  0  0  0  0  0  0  0  0
   -3.9386    0.3594   -2.0781 O   0  0  0  0  0  0  0  0  0  0  0  0
   -3.3275    2.0530   -0.5215 C   0  0  0  0  0  0  0  0  0  0  0  0
   -4.1887    3.0370   -0.8438 N   0  0  0  0  0  0  0  0  0  0  0  0
   -4.0567    4.1326   -0.0546 C   0  0  0  0  0  0  0  0  0  0  0  0
   -3.1250    4.2204    0.9830 C   0  0  0  0  0  0  0  0  0  0  0  0
   -2.2671    3.2132    1.2902 N   0  0  0  0  0  0  0  0  0  0  0  0
   -2.4037    2.1243    0.5012 C   0  0  0  0  0  0  0  0  0  0  0  0
   -1.6213    0.8429    0.5666 C   0  0  2  0  0  0  0  0  0  0  0  0
   -0.2837    1.1021    0.1490 O   0  0  0  0  0  0  0  0  0  0  0  0
    0.6428    1.0648    1.1349 C   0  0  0  0  0  0  0  0  0  0  0  0
    0.3756    0.9457    2.3234 O   0  0  0  0  0  0  0  0  0  0  0  0
    1.9318    1.1409    0.6347 N   0  0  0  0  0  0  0  0  0  0  0  0
    3.0579    0.8505    1.5258 C   0  0  0  0  0  0  0  0  0  0  0  0
    4.0959   -0.0800    0.8495 C   0  0  0  0  0  0  0  0  0  0  0  0
    3.5035   -1.1119   -0.0316 N   0  0  0  0  0  0  0  0  0  0  0  0
    2.6608   -0.4763   -1.0802 C   0  0  0  0  0  0  0  0  0  0  0  0
    2.2290    0.9804   -0.7870 C   0  0  0  0  0  0  0  0  0  0  0  0
    2.7188   -2.0638    0.7591 C   0  0  0  0  0  0  0  0  0  0  0  0
   -2.2426   -2.0610   -1.7354 C   0  0  0  0  0  0  0  0  0  0  0  0
   -1.7668   -3.3702   -1.8607 C   0  0  0  0  0  0  0  0  0  0  0  0
    0.0003   -3.4384    1.0095 H   0  0  0  0  0  0  0  0  0  0  0  0
   -4.7289    4.9563   -0.2726 H   0  0  0  0  0  0  0  0  0  0  0  0
   -3.0473    5.1084    1.5999 H   0  0  0  0  0  0  0  0  0  0  0  0
   -1.7353    0.3623    1.5461 H   0  0  0  0  0  0  0  0  0  0  0  0
    3.5303    1.8029    1.7894 H   0  0  0  0  0  0  0  0  0  0  0  0
    2.6991    0.3873    2.4514 H   0  0  0  0  0  0  0  0  0  0  0  0
    4.7367   -0.5432    1.6095 H   0  0  0  0  0  0  0  0  0  0  0  0
    4.7736    0.5290    0.2362 H   0  0  0  0  0  0  0  0  0  0  0  0
    3.2313   -0.4778   -2.0167 H   0  0  0  0  0  0  0  0  0  0  0  0
    1.7677   -1.0829   -1.2796 H   0  0  0  0  0  0  0  0  0  0  0  0
    3.0432    1.6742   -1.0305 H   0  0  0  0  0  0  0  0  0  0  0  0
    1.3786    1.2539   -1.4185 H   0  0  0  0  0  0  0  0  0  0  0  0
    3.3352   -2.5148    1.5450 H   0  0  0  0  0  0  0  0  0  0  0  0
    1.8455   -1.6108    1.2352 H   0  0  0  0  0  0  0  0  0  0  0  0
    2.3744   -2.8869    0.1242 H   0  0  0  0  0  0  0  0  0  0  0  0
   -2.8796   -1.6619   -2.5173 H   0  0  0  0  0  0  0  0  0  0  0  0
   -2.0381   -3.9629   -2.7301 H   0  0  0  0  0  0  0  0  0  0  0  0
  1  2  1  0  0  0  0
  2  3  2  0  0  0  0
  3  4  1  0  0  0  0
  3 28  1  0  0  0  0
  5  6  1  0  0  0  0
  5  4  2  0  0  0  0
  6 15  1  0  0  0  0
  7  9  1  0  0  0  0
  7  6  1  0  0  0  0
  8  7  2  0  0  0  0
  9 14  1  0  0  0  0
 10  9  2  0  0  0  0
 10 11  1  0  0  0  0
 11 12  2  0  0  0  0
 12 13  1  0  0  0  0
 12 30  1  0  0  0  0
 14 15  1  0  0  0  0
 14 13  2  0  0  0  0
 15 31  1  1  0  0  0
 16 15  1  0  0  0  0
 16 17  1  0  0  0  0
 17 18  2  0  0  0  0
 19 17  1  0  0  0  0
 19 20  1  0  0  0  0
 20 32  1  0  0  0  0
 20 33  1  0  0  0  0
 21 20  1  0  0  0  0
 21 34  1  0  0  0  0
 22 25  1  0  0  0  0
 22 21  1  0  0  0  0
 23 24  1  0  0  0  0
 23 22  1  0  0  0  0
 24 19  1  0  0  0  0
 25 41  1  0  0  0  0
 25 40  1  0  0  0  0
 26  5  1  0  0  0  0
 27 26  2  0  0  0  0
 27  2  1  0  0  0  0
 29 11  1  0  0  0  0
 35 21  1  0  0  0  0
 36 23  1  0  0  0  0
 37 23  1  0  0  0  0
 38 24  1  0  0  0  0
 39 24  1  0  0  0  0
 42 25  1  0  0  0  0
 43 26  1  0  0  0  0
 44 27  1  0  0  0  0
M  END
