52.8235
 OpenBabel10231816213D

 25 25  0  0  1  0  0  0  0  0999 V2000
   -0.0963   -3.1877    0.1890 O   0  0  0  0  0  0  0  0  0  0  0  0
   -0.6911   -2.6587   -0.9129 C   0  0  0  0  0  0  0  0  0  0  0  0
   -0.7037   -3.3124   -1.9473 O   0  0  0  0  0  0  0  0  0  0  0  0
   -1.2596   -1.3317   -0.7191 C   0  0  0  0  0  0  0  0  0  0  0  0
   -2.2841   -0.9173   -1.4807 N   0  0  0  0  0  0  0  0  0  0  0  0
   -2.5852    0.3587   -1.0696 O   0  0  0  0  0  0  0  0  0  0  0  0
   -1.7352    0.7319   -0.0807 C   0  0  0  0  0  0  0  0  0  0  0  0
   -0.8619   -0.2934    0.1941 C   0  0  0  0  0  0  0  0  0  0  0  0
    0.2807   -0.2502    1.1579 C   0  0  0  0  0  0  0  0  0  0  0  0
    1.4856    0.5722    0.6683 C   0  0  2  0  0  0  0  0  0  0  0  0
    1.1900    2.0241    0.7004 N   0  0  0  0  0  0  0  0  0  0  0  0
    1.9098    0.1552   -0.7406 C   0  0  0  0  0  0  0  0  0  0  0  0
    2.0823    0.8996   -1.6986 O   0  0  0  0  0  0  0  0  0  0  0  0
    2.1664   -1.1657   -0.8498 O   0  0  0  0  0  0  0  0  0  0  0  0
   -1.8805    2.1034    0.4366 C   0  0  0  0  0  0  0  0  0  0  0  0
    0.2156   -4.0607   -0.1249 H   0  0  0  0  0  0  0  0  0  0  0  0
   -0.0782    0.1682    2.1096 H   0  0  0  0  0  0  0  0  0  0  0  0
    0.6169   -1.2617    1.4036 H   0  0  0  0  0  0  0  0  0  0  0  0
    2.3477    0.3944    1.3227 H   0  0  0  0  0  0  0  0  0  0  0  0
    1.5150    2.4365    1.5714 H   0  0  0  0  0  0  0  0  0  0  0  0
    1.6943    2.4841   -0.0638 H   0  0  0  0  0  0  0  0  0  0  0  0
    2.4057   -1.2830   -1.7964 H   0  0  0  0  0  0  0  0  0  0  0  0
   -2.9217    2.4277    0.4368 H   0  0  0  0  0  0  0  0  0  0  0  0
   -1.3004    2.8052   -0.1738 H   0  0  0  0  0  0  0  0  0  0  0  0
   -1.5117    2.1612    1.4678 H   0  0  0  0  0  0  0  0  0  0  0  0
  2  4  1  0  0  0  0
  2  1  1  0  0  0  0
  3  2  2  0  0  0  0
  4  8  1  0  0  0  0
  5  6  1  0  0  0  0
  5  4  2  0  0  0  0
  6  7  1  0  0  0  0
  7  8  2  0  0  0  0
  7 15  1  0  0  0  0
  8  9  1  0  0  0  0
  9 18  1  0  0  0  0
  9 17  1  0  0  0  0
 10 11  1  0  0  0  0
 10  9  1  0  0  0  0
 10 19  1  1  0  0  0
 11 20  1  0  0  0  0
 12 10  1  0  0  0  0
 13 12  2  0  0  0  0
 14 12  1  0  0  0  0
 15 23  1  0  0  0  0
 15 25  1  0  0  0  0
 16  1  1  0  0  0  0
 21 11  1  0  0  0  0
 22 14  1  0  0  0  0
 24 15  1  0  0  0  0
M  END
