75.4687
 OpenBabel10231816213D

 45 47  0  0  1  0  0  0  0  0999 V2000
    0.2535   -0.4030   -0.7116 S   0  0  0  0  0  0  0  0  0  0  0  0
   -0.7998    0.7565   -0.0131 C   0  0  0  0  0  0  0  0  0  0  0  0
   -0.6685    0.7826    1.3622 C   0  0  0  0  0  0  0  0  0  0  0  0
    0.2914   -0.1540    1.8385 C   0  0  0  0  0  0  0  0  0  0  0  0
    0.8773   -0.8782    0.8174 C   0  0  0  0  0  0  0  0  0  0  0  0
    1.9381   -1.9491    0.9367 C   0  0  1  0  0  0  0  0  0  0  0  0
    1.4207   -3.1402    0.3431 O   0  0  0  0  0  0  0  0  0  0  0  0
    3.2830   -1.5509    0.3519 C   0  0  0  0  0  0  0  0  0  0  0  0
    3.9456   -0.4122    0.8409 C   0  0  0  0  0  0  0  0  0  0  0  0
    5.1866   -0.0214    0.3276 C   0  0  0  0  0  0  0  0  0  0  0  0
    5.7934   -0.7663   -0.6814 C   0  0  0  0  0  0  0  0  0  0  0  0
    6.9977   -0.4896   -1.2673 O   0  0  0  0  0  0  0  0  0  0  0  0
    7.6848    0.6622   -0.7943 C   0  0  0  0  0  0  0  0  0  0  0  0
    5.1510   -1.9059   -1.1656 C   0  0  0  0  0  0  0  0  0  0  0  0
    3.9114   -2.2997   -0.6529 C   0  0  0  0  0  0  0  0  0  0  0  0
   -1.7276    1.5666   -0.8822 C   0  0  2  0  0  0  0  0  0  0  0  0
   -1.3817    2.9387   -0.6935 O   0  0  0  0  0  0  0  0  0  0  0  0
   -3.1871    1.3430   -0.5365 C   0  0  0  0  0  0  0  0  0  0  0  0
   -3.7908    0.1179   -0.8582 C   0  0  0  0  0  0  0  0  0  0  0  0
   -5.1218   -0.1335   -0.5202 C   0  0  0  0  0  0  0  0  0  0  0  0
   -5.8738    0.8378    0.1431 C   0  0  0  0  0  0  0  0  0  0  0  0
   -7.1782    0.7115    0.5340 O   0  0  0  0  0  0  0  0  0  0  0  0
   -7.8117   -0.5233    0.2280 C   0  0  0  0  0  0  0  0  0  0  0  0
   -5.2853    2.0612    0.4602 C   0  0  0  0  0  0  0  0  0  0  0  0
   -3.9545    2.3131    0.1243 C   0  0  0  0  0  0  0  0  0  0  0  0
   -1.2533    1.4399    1.9964 H   0  0  0  0  0  0  0  0  0  0  0  0
    0.5383   -0.2907    2.8850 H   0  0  0  0  0  0  0  0  0  0  0  0
    2.1008   -2.1884    1.9949 H   0  0  0  0  0  0  0  0  0  0  0  0
    0.9806   -2.8645   -0.4786 H   0  0  0  0  0  0  0  0  0  0  0  0
    3.4962    0.1887    1.6296 H   0  0  0  0  0  0  0  0  0  0  0  0
    5.6487    0.8694    0.7390 H   0  0  0  0  0  0  0  0  0  0  0  0
    8.6207    0.7460   -1.3539 H   0  0  0  0  0  0  0  0  0  0  0  0
    7.9376    0.5630    0.2668 H   0  0  0  0  0  0  0  0  0  0  0  0
    7.1033    1.5721   -0.9777 H   0  0  0  0  0  0  0  0  0  0  0  0
    5.6200   -2.4977   -1.9486 H   0  0  0  0  0  0  0  0  0  0  0  0
    3.4474   -3.2020   -1.0449 H   0  0  0  0  0  0  0  0  0  0  0  0
   -1.5869    1.3453   -1.9479 H   0  0  0  0  0  0  0  0  0  0  0  0
   -0.4580    3.0280   -0.9857 H   0  0  0  0  0  0  0  0  0  0  0  0
   -3.2207   -0.6586   -1.3652 H   0  0  0  0  0  0  0  0  0  0  0  0
   -5.5384   -1.0985   -0.7836 H   0  0  0  0  0  0  0  0  0  0  0  0
   -7.8530   -0.6869   -0.8542 H   0  0  0  0  0  0  0  0  0  0  0  0
   -8.8388   -0.4698    0.5977 H   0  0  0  0  0  0  0  0  0  0  0  0
   -7.3161   -1.3577    0.7360 H   0  0  0  0  0  0  0  0  0  0  0  0
   -5.8628    2.8235    0.9760 H   0  0  0  0  0  0  0  0  0  0  0  0
   -3.5192    3.2749    0.3879 H   0  0  0  0  0  0  0  0  0  0  0  0
  1  2  1  0  0  0  0
  1  5  1  0  0  0  0
  2  3  2  0  0  0  0
  3  4  1  0  0  0  0
  3 26  1  0  0  0  0
  4 27  1  0  0  0  0
  5  6  1  0  0  0  0
  5  4  2  0  0  0  0
  6 28  1  1  0  0  0
  7  6  1  0  0  0  0
  8  9  1  0  0  0  0
  8  6  1  0  0  0  0
  9 30  1  0  0  0  0
 10 31  1  0  0  0  0
 10  9  2  0  0  0  0
 11 10  1  0  0  0  0
 12 13  1  0  0  0  0
 12 11  1  0  0  0  0
 13 33  1  0  0  0  0
 14 11  2  0  0  0  0
 14 15  1  0  0  0  0
 15  8  2  0  0  0  0
 16 37  1  6  0  0  0
 16 17  1  0  0  0  0
 16 18  1  0  0  0  0
 16  2  1  0  0  0  0
 18 25  1  0  0  0  0
 19 18  2  0  0  0  0
 19 20  1  0  0  0  0
 20 21  2  0  0  0  0
 21 24  1  0  0  0  0
 21 22  1  0  0  0  0
 23 22  1  0  0  0  0
 23 42  1  0  0  0  0
 23 43  1  0  0  0  0
 24 44  1  0  0  0  0
 25 45  1  0  0  0  0
 25 24  2  0  0  0  0
 29  7  1  0  0  0  0
 32 13  1  0  0  0  0
 34 13  1  0  0  0  0
 35 14  1  0  0  0  0
 36 15  1  0  0  0  0
 38 17  1  0  0  0  0
 39 19  1  0  0  0  0
 40 20  1  0  0  0  0
 41 23  1  0  0  0  0
M  END
