-58.6854
 OpenBabel10231816213D

 39 40  0  0  0  0  0  0  0  0999 V2000
    2.5199   -1.4878    0.4148 S   0  0  0  0  0  0  0  0  0  0  0  0
    3.5150   -2.2542    1.1231 O   0  0  0  0  0  0  0  0  0  0  0  0
    2.6736   -1.0821   -0.9640 O   0  0  0  0  0  0  0  0  0  0  0  0
    2.1966   -0.0655    1.2564 N   0  0  0  0  0  0  0  0  0  0  0  0
    3.2440    0.8729    1.4135 C   0  0  0  0  0  0  0  0  0  0  0  0
    4.4070    0.6070    1.1433 O   0  0  0  0  0  0  0  0  0  0  0  0
    2.8102    2.2488    1.8617 C   0  0  0  0  0  0  0  0  0  0  0  0
    4.0025    3.1484    2.1288 C   0  0  0  0  0  0  0  0  0  0  0  0
    0.9974   -2.3489    0.5097 C   0  0  0  0  0  0  0  0  0  0  0  0
   -0.1099   -1.9110   -0.2086 C   0  0  0  0  0  0  0  0  0  0  0  0
   -0.0420   -0.6935   -0.9134 N   0  0  0  0  0  0  0  0  0  0  0  0
   -1.0861    0.0756   -1.4245 C   0  0  0  0  0  0  0  0  0  0  0  0
   -2.2860    0.1994   -0.7251 C   0  0  0  0  0  0  0  0  0  0  0  0
   -3.3627    0.8997   -1.2582 C   0  0  0  0  0  0  0  0  0  0  0  0
   -3.2206    1.5130   -2.5038 C   0  0  0  0  0  0  0  0  0  0  0  0
   -2.0146    1.4142   -3.2045 C   0  0  0  0  0  0  0  0  0  0  0  0
   -0.9545    0.6938   -2.6648 C   0  0  0  0  0  0  0  0  0  0  0  0
   -4.6391    0.9987   -0.4801 C   0  0  0  0  0  0  0  0  0  0  0  0
   -4.6364    0.2237    0.6428 F   0  0  0  0  0  0  0  0  0  0  0  0
   -5.7239    0.6080   -1.1999 F   0  0  0  0  0  0  0  0  0  0  0  0
   -4.8903    2.2670   -0.0591 F   0  0  0  0  0  0  0  0  0  0  0  0
   -1.2824   -2.6706   -0.1271 C   0  0  0  0  0  0  0  0  0  0  0  0
   -1.2828   -3.8158    0.6537 C   0  0  0  0  0  0  0  0  0  0  0  0
   -0.2154   -4.2451    1.3409 N   0  0  0  0  0  0  0  0  0  0  0  0
    0.9203   -3.5034    1.2573 C   0  0  0  0  0  0  0  0  0  0  0  0
    1.2543    0.3016    1.1287 H   0  0  0  0  0  0  0  0  0  0  0  0
    2.2111    2.1408    2.7716 H   0  0  0  0  0  0  0  0  0  0  0  0
    2.1712    2.6926    1.0860 H   0  0  0  0  0  0  0  0  0  0  0  0
    4.5991    3.2840    1.2275 H   0  0  0  0  0  0  0  0  0  0  0  0
    4.6543    2.7218    2.8987 H   0  0  0  0  0  0  0  0  0  0  0  0
    3.6862    4.1417    2.4614 H   0  0  0  0  0  0  0  0  0  0  0  0
    0.8572   -0.5553   -1.3900 H   0  0  0  0  0  0  0  0  0  0  0  0
   -2.3802   -0.2584    0.2582 H   0  0  0  0  0  0  0  0  0  0  0  0
   -4.0529    2.0739   -2.9233 H   0  0  0  0  0  0  0  0  0  0  0  0
   -1.9101    1.8948   -4.1730 H   0  0  0  0  0  0  0  0  0  0  0  0
   -0.0279    0.5985   -3.2259 H   0  0  0  0  0  0  0  0  0  0  0  0
   -2.1824   -2.4049   -0.6730 H   0  0  0  0  0  0  0  0  0  0  0  0
   -2.1818   -4.4278    0.7329 H   0  0  0  0  0  0  0  0  0  0  0  0
    1.7623   -3.8955    1.8075 H   0  0  0  0  0  0  0  0  0  0  0  0
  1  9  1  0  0  0  0
  1  2  2  0  0  0  0
  1  4  1  0  0  0  0
  3  1  2  0  0  0  0
  4  5  1  0  0  0  0
  5  7  1  0  0  0  0
  6  5  2  0  0  0  0
  7  8  1  0  0  0  0
  7 27  1  0  0  0  0
  8 31  1  0  0  0  0
  8 30  1  0  0  0  0
  9 25  2  0  0  0  0
 10 22  2  0  0  0  0
 10  9  1  0  0  0  0
 11 10  1  0  0  0  0
 12 11  1  0  0  0  0
 12 13  2  0  0  0  0
 13 33  1  0  0  0  0
 14 13  1  0  0  0  0
 14 18  1  0  0  0  0
 15 14  2  0  0  0  0
 16 17  2  0  0  0  0
 16 15  1  0  0  0  0
 17 12  1  0  0  0  0
 18 21  1  0  0  0  0
 18 19  1  0  0  0  0
 20 18  1  0  0  0  0
 22 23  1  0  0  0  0
 23 38  1  0  0  0  0
 23 24  2  0  0  0  0
 25 24  1  0  0  0  0
 25 39  1  0  0  0  0
 26  4  1  0  0  0  0
 28  7  1  0  0  0  0
 29  8  1  0  0  0  0
 32 11  1  0  0  0  0
 34 15  1  0  0  0  0
 35 16  1  0  0  0  0
 36 17  1  0  0  0  0
 37 22  1  0  0  0  0
M  END
