-20.9944
 OpenBabel10231816213D

 41 42  0  0  0  0  0  0  0  0999 V2000
   -6.1822   -1.3111   -0.2151 C   0  0  0  0  0  0  0  0  0  0  0  0
   -5.5022   -0.1995    0.4359 N   0  0  0  0  0  0  0  0  0  0  0  0
   -6.3260    0.9090    0.9068 C   0  0  0  0  0  0  0  0  0  0  0  0
   -4.1316   -0.0220    0.2652 C   0  0  0  0  0  0  0  0  0  0  0  0
   -3.3187   -0.9918   -0.3462 C   0  0  0  0  0  0  0  0  0  0  0  0
   -1.9321   -0.8283   -0.4777 C   0  0  0  0  0  0  0  0  0  0  0  0
   -1.3046    0.3233   -0.0020 C   0  0  0  0  0  0  0  0  0  0  0  0
   -2.0865    1.2998    0.5968 C   0  0  0  0  0  0  0  0  0  0  0  0
   -3.4737    1.1250    0.7254 C   0  0  0  0  0  0  0  0  0  0  0  0
    0.0949    0.4227   -0.1577 N   0  0  0  0  0  0  0  0  0  0  0  0
    0.9038    1.4733    0.2545 C   0  0  0  0  0  0  0  0  0  0  0  0
    0.5160    2.4817    0.8264 O   0  0  0  0  0  0  0  0  0  0  0  0
    2.2242    1.2515   -0.0969 N   0  0  0  0  0  0  0  0  0  0  0  0
    3.2837    2.0902    0.2050 C   0  0  0  0  0  0  0  0  0  0  0  0
    3.1910    3.1853    0.7550 O   0  0  0  0  0  0  0  0  0  0  0  0
    4.6358    1.6278   -0.3159 C   0  0  0  0  0  0  0  0  0  0  0  0
    4.8583    0.1341   -0.3289 C   0  0  0  0  0  0  0  0  0  0  0  0
    5.2581   -0.5331    0.8366 C   0  0  0  0  0  0  0  0  0  0  0  0
    5.4460   -1.9154    0.8276 C   0  0  0  0  0  0  0  0  0  0  0  0
    5.2245   -2.6436   -0.3401 C   0  0  0  0  0  0  0  0  0  0  0  0
    4.8211   -1.9903   -1.5027 C   0  0  0  0  0  0  0  0  0  0  0  0
    4.6436   -0.6072   -1.5015 C   0  0  0  0  0  0  0  0  0  0  0  0
   -5.7885   -2.2685    0.1435 H   0  0  0  0  0  0  0  0  0  0  0  0
   -6.0706   -1.2563   -1.3034 H   0  0  0  0  0  0  0  0  0  0  0  0
   -7.2544   -1.3167    0.0078 H   0  0  0  0  0  0  0  0  0  0  0  0
   -6.2662    1.7629    0.2225 H   0  0  0  0  0  0  0  0  0  0  0  0
   -6.0165    1.2250    1.9097 H   0  0  0  0  0  0  0  0  0  0  0  0
   -7.3805    0.6246    0.9868 H   0  0  0  0  0  0  0  0  0  0  0  0
   -3.7462   -1.9125   -0.7298 H   0  0  0  0  0  0  0  0  0  0  0  0
   -1.3669   -1.6220   -0.9563 H   0  0  0  0  0  0  0  0  0  0  0  0
   -1.6692    2.2213    0.9880 H   0  0  0  0  0  0  0  0  0  0  0  0
   -4.0139    1.9318    1.2109 H   0  0  0  0  0  0  0  0  0  0  0  0
    0.5371   -0.3673   -0.6012 H   0  0  0  0  0  0  0  0  0  0  0  0
    2.4364    0.3647   -0.5181 H   0  0  0  0  0  0  0  0  0  0  0  0
    5.4115    2.0907    0.3073 H   0  0  0  0  0  0  0  0  0  0  0  0
    4.7597    2.0369   -1.3255 H   0  0  0  0  0  0  0  0  0  0  0  0
    5.4382    0.0205    1.7573 H   0  0  0  0  0  0  0  0  0  0  0  0
    5.7716   -2.4251    1.7316 H   0  0  0  0  0  0  0  0  0  0  0  0
    5.3769   -3.7203   -0.3452 H   0  0  0  0  0  0  0  0  0  0  0  0
    4.6566   -2.5597   -2.4146 H   0  0  0  0  0  0  0  0  0  0  0  0
    4.3416   -0.1113   -2.4218 H   0  0  0  0  0  0  0  0  0  0  0  0
  1 25  1  0  0  0  0
  1 23  1  0  0  0  0
  1  2  1  0  0  0  0
  2  3  1  0  0  0  0
  3 28  1  0  0  0  0
  3 27  1  0  0  0  0
  4  2  1  0  0  0  0
  4  9  2  0  0  0  0
  5  4  1  0  0  0  0
  6  5  2  0  0  0  0
  6  7  1  0  0  0  0
  7  8  2  0  0  0  0
  8  9  1  0  0  0  0
  8 31  1  0  0  0  0
  9 32  1  0  0  0  0
 10  7  1  0  0  0  0
 10 11  1  0  0  0  0
 11 12  2  0  0  0  0
 13 14  1  0  0  0  0
 13 11  1  0  0  0  0
 14 15  2  0  0  0  0
 16 14  1  0  0  0  0
 16 35  1  0  0  0  0
 17 16  1  0  0  0  0
 17 18  2  0  0  0  0
 18 37  1  0  0  0  0
 19 18  1  0  0  0  0
 19 38  1  0  0  0  0
 20 19  2  0  0  0  0
 21 22  2  0  0  0  0
 21 20  1  0  0  0  0
 22 17  1  0  0  0  0
 24  1  1  0  0  0  0
 26  3  1  0  0  0  0
 29  5  1  0  0  0  0
 30  6  1  0  0  0  0
 33 10  1  0  0  0  0
 34 13  1  0  0  0  0
 36 16  1  0  0  0  0
 39 20  1  0  0  0  0
 40 21  1  0  0  0  0
 41 22  1  0  0  0  0
M  END
