50.5338
 OpenBabel10231816213D

 36 36  0  0  1  0  0  0  0  0999 V2000
    4.1940    1.6978   -0.2999 C   0  0  0  0  0  0  0  0  0  0  0  0
    5.0784    0.5106   -0.0152 C   0  0  0  0  0  0  0  0  0  0  0  0
    3.5955    0.3187   -0.2006 C   0  0  0  0  0  0  0  0  0  0  0  0
    2.8031   -0.0748    0.9808 N   0  0  0  0  0  0  0  0  0  0  0  0
    1.3575    0.1525    0.7608 C   0  0  0  0  0  0  0  0  0  0  0  0
    0.7626   -1.0686    0.0285 C   0  0  0  0  0  0  0  0  0  0  0  0
   -0.7753   -1.2261    0.2082 C   0  0  1  0  0  0  0  0  0  0  0  0
   -1.1634   -1.5750    1.5937 N   0  0  0  0  0  0  0  0  0  0  0  0
   -1.5399    0.0257   -0.2540 C   0  0  0  0  0  0  0  0  0  0  0  0
   -3.0543   -0.2168   -0.2942 C   0  0  0  0  0  0  0  0  0  0  0  0
   -3.8208    1.0471   -0.6883 C   0  0  0  0  0  0  0  0  0  0  0  0
   -5.3291    0.8200   -0.7375 C   0  0  0  0  0  0  0  0  0  0  0  0
    1.3885   -2.2642    0.5054 O   0  0  0  0  0  0  0  0  0  0  0  0
    1.0692   -0.9511   -1.3589 O   0  0  0  0  0  0  0  0  0  0  0  0
    4.0156    2.4008    0.4978 H   0  0  0  0  0  0  0  0  0  0  0  0
    4.2433    2.1491   -1.2853 H   0  0  0  0  0  0  0  0  0  0  0  0
    5.4856    0.4064    0.9788 H   0  0  0  0  0  0  0  0  0  0  0  0
    5.7267    0.1470   -0.7996 H   0  0  0  0  0  0  0  0  0  0  0  0
    3.2916   -0.1424   -1.1278 H   0  0  0  0  0  0  0  0  0  0  0  0
    3.1124    0.4201    1.8057 H   0  0  0  0  0  0  0  0  0  0  0  0
    0.9114    0.2524    1.7604 H   0  0  0  0  0  0  0  0  0  0  0  0
    1.1592    1.0731    0.2021 H   0  0  0  0  0  0  0  0  0  0  0  0
   -1.0667   -2.0661   -0.4288 H   0  0  0  0  0  0  0  0  0  0  0  0
   -0.5478   -2.3485    1.8784 H   0  0  0  0  0  0  0  0  0  0  0  0
   -0.9519   -0.8112    2.2178 H   0  0  0  0  0  0  0  0  0  0  0  0
   -1.3180    0.8640    0.4158 H   0  0  0  0  0  0  0  0  0  0  0  0
   -1.1894    0.3135   -1.2542 H   0  0  0  0  0  0  0  0  0  0  0  0
   -3.2729   -1.0230   -1.0035 H   0  0  0  0  0  0  0  0  0  0  0  0
   -3.3967   -0.5538    0.6916 H   0  0  0  0  0  0  0  0  0  0  0  0
   -3.6005    1.8454    0.0301 H   0  0  0  0  0  0  0  0  0  0  0  0
   -3.4758    1.3950   -1.6681 H   0  0  0  0  0  0  0  0  0  0  0  0
   -5.5933    0.0559   -1.4760 H   0  0  0  0  0  0  0  0  0  0  0  0
   -5.8523    1.7434   -1.0147 H   0  0  0  0  0  0  0  0  0  0  0  0
   -5.7171    0.4993    0.2351 H   0  0  0  0  0  0  0  0  0  0  0  0
    2.2766   -1.9544    0.7796 H   0  0  0  0  0  0  0  0  0  0  0  0
    1.1942   -1.8619   -1.6641 H   0  0  0  0  0  0  0  0  0  0  0  0
  1  3  1  0  0  0  0
  1  2  1  0  0  0  0
  1 15  1  0  0  0  0
  2 17  1  0  0  0  0
  3  2  1  0  0  0  0
  3  4  1  0  0  0  0
  4 20  1  0  0  0  0
  5  4  1  0  0  0  0
  5 21  1  0  0  0  0
  6  7  1  0  0  0  0
  6 13  1  0  0  0  0
  6  5  1  0  0  0  0
  7 23  1  6  0  0  0
  7  8  1  0  0  0  0
  8 24  1  0  0  0  0
  8 25  1  0  0  0  0
  9  7  1  0  0  0  0
  9 26  1  0  0  0  0
 10  9  1  0  0  0  0
 10 29  1  0  0  0  0
 11 10  1  0  0  0  0
 11 30  1  0  0  0  0
 12 11  1  0  0  0  0
 12 34  1  0  0  0  0
 13 35  1  0  0  0  0
 14  6  1  0  0  0  0
 16  1  1  0  0  0  0
 18  2  1  0  0  0  0
 19  3  1  0  0  0  0
 22  5  1  0  0  0  0
 27  9  1  0  0  0  0
 28 10  1  0  0  0  0
 31 11  1  0  0  0  0
 32 12  1  0  0  0  0
 33 12  1  0  0  0  0
 36 14  1  0  0  0  0
M  END
