79.2202
 OpenBabel10231816213D

 45 47  0  0  1  0  0  0  0  0999 V2000
    0.1902   -0.5834    0.3670 S   0  0  0  0  0  0  0  0  0  0  0  0
   -1.0137   -1.3433    1.3227 C   0  0  0  0  0  0  0  0  0  0  0  0
   -0.9597   -2.7181    1.1798 C   0  0  0  0  0  0  0  0  0  0  0  0
    0.0601   -3.1390    0.2880 C   0  0  0  0  0  0  0  0  0  0  0  0
    0.7801   -2.0777   -0.2369 C   0  0  0  0  0  0  0  0  0  0  0  0
    1.9237   -2.1623   -1.2030 C   0  0  1  0  0  0  0  0  0  0  0  0
    1.3617   -2.1309   -2.5132 O   0  0  0  0  0  0  0  0  0  0  0  0
    3.0026   -1.1148   -1.0091 C   0  0  0  0  0  0  0  0  0  0  0  0
    3.9110   -1.2497    0.0541 C   0  0  0  0  0  0  0  0  0  0  0  0
    4.8724   -0.2680    0.3038 C   0  0  0  0  0  0  0  0  0  0  0  0
    4.9422    0.8658   -0.5056 C   0  0  0  0  0  0  0  0  0  0  0  0
    5.8268    1.8984   -0.3634 O   0  0  0  0  0  0  0  0  0  0  0  0
    6.7631    1.7897    0.7003 C   0  0  0  0  0  0  0  0  0  0  0  0
    4.0408    1.0089   -1.5619 C   0  0  0  0  0  0  0  0  0  0  0  0
    3.0773    0.0300   -1.8119 C   0  0  0  0  0  0  0  0  0  0  0  0
   -1.9464   -0.5142    2.1547 C   0  0  2  0  0  0  0  0  0  0  0  0
   -2.6840   -1.4104    2.9930 O   0  0  0  0  0  0  0  0  0  0  0  0
   -2.9031    0.3233    1.3260 C   0  0  0  0  0  0  0  0  0  0  0  0
   -2.6941    1.7023    1.1803 C   0  0  0  0  0  0  0  0  0  0  0  0
   -3.5377    2.4645    0.3690 C   0  0  0  0  0  0  0  0  0  0  0  0
   -4.5980    1.8673   -0.3147 C   0  0  0  0  0  0  0  0  0  0  0  0
   -5.3439    2.7226   -1.0784 O   0  0  0  0  0  0  0  0  0  0  0  0
   -6.4318    2.1498   -1.7933 C   0  0  0  0  0  0  0  0  0  0  0  0
   -4.8101    0.4960   -0.1798 C   0  0  0  0  0  0  0  0  0  0  0  0
   -3.9691   -0.2700    0.6327 C   0  0  0  0  0  0  0  0  0  0  0  0
   -1.6375   -3.3849    1.6976 H   0  0  0  0  0  0  0  0  0  0  0  0
    0.2582   -4.1706    0.0299 H   0  0  0  0  0  0  0  0  0  0  0  0
    2.3965   -3.1488   -1.1035 H   0  0  0  0  0  0  0  0  0  0  0  0
    2.1054   -2.2431   -3.1265 H   0  0  0  0  0  0  0  0  0  0  0  0
    3.8542   -2.1123    0.7162 H   0  0  0  0  0  0  0  0  0  0  0  0
    5.5404   -0.4135    1.1454 H   0  0  0  0  0  0  0  0  0  0  0  0
    6.2561    1.7676    1.6714 H   0  0  0  0  0  0  0  0  0  0  0  0
    7.4067    0.9124    0.5705 H   0  0  0  0  0  0  0  0  0  0  0  0
    7.4012    2.6775    0.6773 H   0  0  0  0  0  0  0  0  0  0  0  0
    4.0775    1.8981   -2.1863 H   0  0  0  0  0  0  0  0  0  0  0  0
    2.3625    0.1874   -2.6195 H   0  0  0  0  0  0  0  0  0  0  0  0
   -1.3718    0.1285    2.8340 H   0  0  0  0  0  0  0  0  0  0  0  0
   -3.3671   -0.8754    3.4276 H   0  0  0  0  0  0  0  0  0  0  0  0
   -1.8595    2.1911    1.6787 H   0  0  0  0  0  0  0  0  0  0  0  0
   -3.3584    3.5312    0.2576 H   0  0  0  0  0  0  0  0  0  0  0  0
   -6.9292    2.9527   -2.3457 H   0  0  0  0  0  0  0  0  0  0  0  0
   -6.0810    1.4113   -2.5220 H   0  0  0  0  0  0  0  0  0  0  0  0
   -7.1662    1.7121   -1.1087 H   0  0  0  0  0  0  0  0  0  0  0  0
   -5.6123   -0.0148   -0.7019 H   0  0  0  0  0  0  0  0  0  0  0  0
   -4.1358   -1.3434    0.7078 H   0  0  0  0  0  0  0  0  0  0  0  0
  1  2  1  0  0  0  0
  2 16  1  0  0  0  0
  3  2  2  0  0  0  0
  3 26  1  0  0  0  0
  4  3  1  0  0  0  0
  5  4  2  0  0  0  0
  5  1  1  0  0  0  0
  6 28  1  1  0  0  0
  6  8  1  0  0  0  0
  6  5  1  0  0  0  0
  7  6  1  0  0  0  0
  8  9  2  0  0  0  0
  9 10  1  0  0  0  0
  9 30  1  0  0  0  0
 10 31  1  0  0  0  0
 11 12  1  0  0  0  0
 11 10  2  0  0  0  0
 12 13  1  0  0  0  0
 13 32  1  0  0  0  0
 14 11  1  0  0  0  0
 15 14  2  0  0  0  0
 15  8  1  0  0  0  0
 16 37  1  1  0  0  0
 16 17  1  0  0  0  0
 17 38  1  0  0  0  0
 18 16  1  0  0  0  0
 19 18  1  0  0  0  0
 19 39  1  0  0  0  0
 20 19  2  0  0  0  0
 21 24  2  0  0  0  0
 21 20  1  0  0  0  0
 22 21  1  0  0  0  0
 23 43  1  0  0  0  0
 23 22  1  0  0  0  0
 24 25  1  0  0  0  0
 25 45  1  0  0  0  0
 25 18  2  0  0  0  0
 27  4  1  0  0  0  0
 29  7  1  0  0  0  0
 33 13  1  0  0  0  0
 34 13  1  0  0  0  0
 35 14  1  0  0  0  0
 36 15  1  0  0  0  0
 40 20  1  0  0  0  0
 41 23  1  0  0  0  0
 42 23  1  0  0  0  0
 44 24  1  0  0  0  0
M  END
