-14.6324
 OpenBabel10231816213D

 39 41  0  0  1  0  0  0  0  0999 V2000
   -3.5861   -0.3875   -1.5892 N   0  0  0  0  0  0  0  0  0  0  0  0
   -2.3797   -0.4289   -2.1768 C   0  0  0  0  0  0  0  0  0  0  0  0
   -1.1696   -0.2564   -1.5755 N   0  0  0  0  0  0  0  0  0  0  0  0
   -1.1229   -0.0032   -0.2334 C   0  0  0  0  0  0  0  0  0  0  0  0
   -2.3394    0.0397    0.4655 C   0  0  0  0  0  0  0  0  0  0  0  0
   -3.4862   -0.1545   -0.2796 C   0  0  0  0  0  0  0  0  0  0  0  0
   -4.5508   -0.0519    0.5685 O   0  0  0  0  0  0  0  0  0  0  0  0
   -3.9845    0.1928    1.7887 C   0  0  0  0  0  0  0  0  0  0  0  0
   -2.6617    0.2593    1.7894 N   0  0  0  0  0  0  0  0  0  0  0  0
   -4.9234    0.3505    2.9177 C   0  0  0  0  0  0  0  0  0  0  0  0
    0.0860    0.2570    0.3913 N   0  0  0  0  0  0  0  0  0  0  0  0
    1.3441   -0.0360   -0.2934 C   0  0  1  0  0  0  0  0  0  0  0  0
    1.6162    1.0284   -1.3689 C   0  0  0  0  0  0  0  0  0  0  0  0
    2.0420    0.3887   -2.6597 C   0  0  0  0  0  0  0  0  0  0  0  0
    3.1075    0.6103   -3.2184 O   0  0  0  0  0  0  0  0  0  0  0  0
    1.1098   -0.4266   -3.1997 O   0  0  0  0  0  0  0  0  0  0  0  0
    2.4833   -0.0881    0.7154 C   0  0  0  0  0  0  0  0  0  0  0  0
    3.4957   -1.0504    0.5699 C   0  0  0  0  0  0  0  0  0  0  0  0
    4.5626   -1.1012    1.4687 C   0  0  0  0  0  0  0  0  0  0  0  0
    4.6339   -0.1905    2.5207 C   0  0  0  0  0  0  0  0  0  0  0  0
    3.6417    0.7747    2.6741 C   0  0  0  0  0  0  0  0  0  0  0  0
    2.5768    0.8304    1.7743 C   0  0  0  0  0  0  0  0  0  0  0  0
   -2.3756   -0.6953   -3.6528 C   0  0  0  0  0  0  0  0  0  0  0  0
   -5.6003    1.1917    2.7401 H   0  0  0  0  0  0  0  0  0  0  0  0
   -4.3824    0.5364    3.8491 H   0  0  0  0  0  0  0  0  0  0  0  0
   -5.5224   -0.5562    3.0431 H   0  0  0  0  0  0  0  0  0  0  0  0
    0.0527    0.1204    1.4005 H   0  0  0  0  0  0  0  0  0  0  0  0
    1.2669   -1.0424   -0.7279 H   0  0  0  0  0  0  0  0  0  0  0  0
    0.7331    1.6375   -1.5939 H   0  0  0  0  0  0  0  0  0  0  0  0
    2.4007    1.7342   -1.0679 H   0  0  0  0  0  0  0  0  0  0  0  0
    0.2832   -0.4415   -2.6593 H   0  0  0  0  0  0  0  0  0  0  0  0
    3.4657   -1.7654   -0.2504 H   0  0  0  0  0  0  0  0  0  0  0  0
    5.3416   -1.8491    1.3434 H   0  0  0  0  0  0  0  0  0  0  0  0
    5.4673   -0.2285    3.2173 H   0  0  0  0  0  0  0  0  0  0  0  0
    3.6980    1.4897    3.4906 H   0  0  0  0  0  0  0  0  0  0  0  0
    1.8191    1.6009    1.9039 H   0  0  0  0  0  0  0  0  0  0  0  0
   -1.3698   -0.6394   -4.0797 H   0  0  0  0  0  0  0  0  0  0  0  0
   -2.7740   -1.6954   -3.8444 H   0  0  0  0  0  0  0  0  0  0  0  0
   -2.9991    0.0455   -4.1615 H   0  0  0  0  0  0  0  0  0  0  0  0
  1  6  1  0  0  0  0
  2  1  2  0  0  0  0
  2  3  1  0  0  0  0
  3  4  2  0  0  0  0
  4 11  1  0  0  0  0
  4  5  1  0  0  0  0
  5  9  1  0  0  0  0
  6  5  2  0  0  0  0
  6  7  1  0  0  0  0
  7  8  1  0  0  0  0
  8  9  2  0  0  0  0
  8 10  1  0  0  0  0
 10 26  1  0  0  0  0
 10 25  1  0  0  0  0
 11 27  1  0  0  0  0
 12 28  1  6  0  0  0
 12 11  1  0  0  0  0
 12 17  1  0  0  0  0
 13 30  1  0  0  0  0
 13 12  1  0  0  0  0
 14 13  1  0  0  0  0
 15 14  2  0  0  0  0
 16 14  1  0  0  0  0
 16 31  1  0  0  0  0
 17 22  1  0  0  0  0
 18 17  2  0  0  0  0
 18 19  1  0  0  0  0
 19 20  2  0  0  0  0
 20 21  1  0  0  0  0
 20 34  1  0  0  0  0
 21 35  1  0  0  0  0
 22 36  1  0  0  0  0
 22 21  2  0  0  0  0
 23  2  1  0  0  0  0
 24 10  1  0  0  0  0
 29 13  1  0  0  0  0
 32 18  1  0  0  0  0
 33 19  1  0  0  0  0
 37 23  1  0  0  0  0
 38 23  1  0  0  0  0
 39 23  1  0  0  0  0
M  END
