-27.4115
 OpenBabel10231816213D

 24 23  0  0  1  0  0  0  0  0999 V2000
   -0.2892   -0.5884   -0.2526 C   0  0  2  0  0  0  0  0  0  0  0  0
   -1.2978   -1.4003    0.5876 C   0  0  0  0  0  0  0  0  0  0  0  0
   -2.5076   -1.4149    0.3941 O   0  0  0  0  0  0  0  0  0  0  0  0
   -0.7286   -2.1151    1.5853 O   0  0  0  0  0  0  0  0  0  0  0  0
    0.4612    0.4820    0.5691 C   0  0  0  0  0  0  0  0  0  0  0  0
    1.9828    0.4330    0.3555 C   0  0  0  0  0  0  0  0  0  0  0  0
    2.5663   -0.8526    0.8899 C   0  0  0  0  0  0  0  0  0  0  0  0
    1.8897   -1.7428    1.3921 O   0  0  0  0  0  0  0  0  0  0  0  0
    3.9005   -0.9411    0.7368 O   0  0  0  0  0  0  0  0  0  0  0  0
   -0.8593   -0.0670   -1.4969 N   0  0  0  0  0  0  0  0  0  0  0  0
   -1.8620    0.8317   -1.6953 C   0  0  0  0  0  0  0  0  0  0  0  0
   -2.2219    1.0531   -2.8525 O   0  0  0  0  0  0  0  0  0  0  0  0
   -2.4907    1.5575   -0.5374 C   0  0  0  0  0  0  0  0  0  0  0  0
    0.4167   -1.3435   -0.6209 H   0  0  0  0  0  0  0  0  0  0  0  0
    0.2602   -2.0841    1.6232 H   0  0  0  0  0  0  0  0  0  0  0  0
    0.1254    1.4911    0.3090 H   0  0  0  0  0  0  0  0  0  0  0  0
    0.2563    0.3545    1.6397 H   0  0  0  0  0  0  0  0  0  0  0  0
    2.2188    0.5209   -0.7090 H   0  0  0  0  0  0  0  0  0  0  0  0
    2.4455    1.2631    0.8984 H   0  0  0  0  0  0  0  0  0  0  0  0
    4.3173   -0.1587    0.3147 H   0  0  0  0  0  0  0  0  0  0  0  0
   -0.6035   -0.5296   -2.3621 H   0  0  0  0  0  0  0  0  0  0  0  0
   -2.2310    2.6180   -0.6064 H   0  0  0  0  0  0  0  0  0  0  0  0
   -2.1723    1.1892    0.4361 H   0  0  0  0  0  0  0  0  0  0  0  0
   -3.5769    1.4441   -0.5985 H   0  0  0  0  0  0  0  0  0  0  0  0
  1 14  1  6  0  0  0
  1  5  1  0  0  0  0
  1  2  1  0  0  0  0
  2  4  1  0  0  0  0
  3  2  2  0  0  0  0
  4 15  1  0  0  0  0
  5 17  1  0  0  0  0
  6  5  1  0  0  0  0
  6  7  1  0  0  0  0
  6 19  1  0  0  0  0
  7  8  2  0  0  0  0
  9  7  1  0  0  0  0
 10  1  1  0  0  0  0
 11 10  1  0  0  0  0
 11 13  1  0  0  0  0
 12 11  2  0  0  0  0
 13 23  1  0  0  0  0
 16  5  1  0  0  0  0
 18  6  1  0  0  0  0
 20  9  1  0  0  0  0
 21 10  1  0  0  0  0
 22 13  1  0  0  0  0
 24 13  1  0  0  0  0
M  END
