120.782
 OpenBabel10231816213D

 34 35  0  0  1  0  0  0  0  0999 V2000
   -1.2701   -0.4198   -0.5781 C   0  0  1  0  0  0  0  0  0  0  0  0
    0.0674    0.1671   -0.4210 N   0  0  0  0  0  0  0  0  0  0  0  0
    1.1267   -0.8339   -0.2629 C   0  0  0  0  0  0  0  0  0  0  0  0
    2.4985   -0.1881   -0.2328 C   0  0  0  0  0  0  0  0  0  0  0  0
    3.5310   -0.7658    0.5209 C   0  0  0  0  0  0  0  0  0  0  0  0
    4.8076   -0.1975    0.5317 C   0  0  0  0  0  0  0  0  0  0  0  0
    5.0701    0.9500   -0.2134 C   0  0  0  0  0  0  0  0  0  0  0  0
    4.0593    1.5276   -0.9778 C   0  0  0  0  0  0  0  0  0  0  0  0
    2.7874    0.9557   -0.9953 C   0  0  0  0  0  0  0  0  0  0  0  0
   -1.8216   -1.1305    0.6820 C   0  0  1  0  0  0  0  0  0  0  0  0
   -1.3747   -0.5116    1.8998 O   0  0  0  0  0  0  0  0  0  0  0  0
   -3.3388   -0.9636    0.5487 C   0  0  1  0  0  0  0  0  0  0  0  0
   -4.0091   -1.1680    1.7917 O   0  0  0  0  0  0  0  0  0  0  0  0
   -3.4748    0.4897    0.0905 C   0  0  1  0  0  0  0  0  0  0  0  0
   -3.2687    1.3523    1.2280 O   0  0  0  0  0  0  0  0  0  0  0  0
   -2.3171    0.6947   -0.8994 C   0  0  2  0  0  0  0  0  0  0  0  0
   -2.8941    0.5835   -2.6342 S   0  0  0  0  0  0  0  0  0  0  0  0
   -1.2507   -1.1484   -1.3984 H   0  0  0  0  0  0  0  0  0  0  0  0
    0.0845    0.7437    0.4230 H   0  0  0  0  0  0  0  0  0  0  0  0
    1.1110   -1.5492   -1.0950 H   0  0  0  0  0  0  0  0  0  0  0  0
    0.9728   -1.3899    0.6687 H   0  0  0  0  0  0  0  0  0  0  0  0
    3.3480   -1.6635    1.1072 H   0  0  0  0  0  0  0  0  0  0  0  0
    5.5987   -0.6521    1.1216 H   0  0  0  0  0  0  0  0  0  0  0  0
    6.0626    1.3933   -0.2016 H   0  0  0  0  0  0  0  0  0  0  0  0
    4.2591    2.4205   -1.5628 H   0  0  0  0  0  0  0  0  0  0  0  0
    2.0124    1.4146   -1.6061 H   0  0  0  0  0  0  0  0  0  0  0  0
   -1.5272   -2.1834    0.7288 H   0  0  0  0  0  0  0  0  0  0  0  0
   -1.7035    0.4124    1.8944 H   0  0  0  0  0  0  0  0  0  0  0  0
   -3.7464   -1.6477   -0.2036 H   0  0  0  0  0  0  0  0  0  0  0  0
   -3.3091   -1.2214    2.4748 H   0  0  0  0  0  0  0  0  0  0  0  0
   -4.4672    0.7220   -0.3072 H   0  0  0  0  0  0  0  0  0  0  0  0
   -3.9959    1.1271    1.8452 H   0  0  0  0  0  0  0  0  0  0  0  0
   -1.8871    1.6952   -0.7761 H   0  0  0  0  0  0  0  0  0  0  0  0
   -1.7406    0.9849   -3.1917 H   0  0  0  0  0  0  0  0  0  0  0  0
  1 18  1  6  0  0  0
  1  2  1  0  0  0  0
  1 10  1  0  0  0  0
  2  3  1  0  0  0  0
  2 19  1  0  0  0  0
  3  4  1  0  0  0  0
  3 21  1  0  0  0  0
  4  5  2  0  0  0  0
  5  6  1  0  0  0  0
  5 22  1  0  0  0  0
  6 23  1  0  0  0  0
  7 24  1  0  0  0  0
  7  6  2  0  0  0  0
  8  7  1  0  0  0  0
  9  8  2  0  0  0  0
  9  4  1  0  0  0  0
 10 27  1  6  0  0  0
 10 11  1  0  0  0  0
 12 29  1  6  0  0  0
 12 10  1  0  0  0  0
 12 13  1  0  0  0  0
 13 30  1  0  0  0  0
 14 31  1  6  0  0  0
 14 12  1  0  0  0  0
 14 15  1  0  0  0  0
 15 32  1  0  0  0  0
 16 33  1  1  0  0  0
 16  1  1  0  0  0  0
 16 14  1  0  0  0  0
 17 16  1  0  0  0  0
 20  3  1  0  0  0  0
 25  8  1  0  0  0  0
 26  9  1  0  0  0  0
 28 11  1  0  0  0  0
 34 17  1  0  0  0  0
M  END
