46.6969
 OpenBabel10231816213D

 57 60  0  0  1  0  0  0  0  0999 V2000
   -1.9783   -0.0931   -1.9157 C   0  0  0  0  0  0  0  0  0  0  0  0
   -2.4805   -1.1213   -0.9009 C   0  0  2  0  0  0  0  0  0  0  0  0
   -2.4374   -2.5108   -1.5720 C   0  0  0  0  0  0  0  0  0  0  0  0
   -1.4566   -3.1056   -2.0147 O   0  0  0  0  0  0  0  0  0  0  0  0
   -3.7124   -3.0217   -1.5957 N   0  0  0  0  0  0  0  0  0  0  0  0
   -4.6313   -2.2528   -0.8260 C   0  0  0  0  0  0  0  0  0  0  0  0
   -3.9392   -0.9920   -0.6116 N   0  0  0  0  0  0  0  0  0  0  0  0
   -4.5431   -0.0363    0.1829 C   0  0  0  0  0  0  0  0  0  0  0  0
   -5.8098   -0.2719    0.7401 C   0  0  0  0  0  0  0  0  0  0  0  0
   -6.4424    0.6584    1.5504 C   0  0  0  0  0  0  0  0  0  0  0  0
   -5.8435    1.8788    1.8278 C   0  0  0  0  0  0  0  0  0  0  0  0
   -4.5997    2.1560    1.2748 C   0  0  0  0  0  0  0  0  0  0  0  0
   -3.9670    1.2088    0.4615 C   0  0  0  0  0  0  0  0  0  0  0  0
   -1.6463   -1.1489    0.3849 C   0  0  0  0  0  0  0  0  0  0  0  0
   -0.1472   -1.1759    0.0826 C   0  0  0  0  0  0  0  0  0  0  0  0
    0.2832   -0.1140   -0.8198 N   0  0  0  0  0  0  0  0  0  0  0  0
    0.3493    1.2213   -0.2212 C   0  0  0  0  0  0  0  0  0  0  0  0
    1.4501    1.3368    0.8507 C   0  0  0  0  0  0  0  0  0  0  0  0
    2.7948    0.9393    0.2930 C   0  0  0  0  0  0  0  0  0  0  0  0
    3.9558    0.9291    0.9788 C   0  0  0  0  0  0  0  0  0  0  0  0
    5.2216    0.5246    0.3072 C   0  0  0  0  0  0  0  0  0  0  0  0
    5.4554    0.7816   -1.0582 C   0  0  0  0  0  0  0  0  0  0  0  0
    6.6544    0.4055   -1.6654 C   0  0  0  0  0  0  0  0  0  0  0  0
    7.6193   -0.2177   -0.9077 C   0  0  0  0  0  0  0  0  0  0  0  0
    7.4424   -0.4744    0.4453 C   0  0  0  0  0  0  0  0  0  0  0  0
    6.2419   -0.0953    1.0451 C   0  0  0  0  0  0  0  0  0  0  0  0
    8.7814   -0.5834   -1.4849 F   0  0  0  0  0  0  0  0  0  0  0  0
    4.0280    1.2778    2.4406 C   0  0  0  0  0  0  0  0  0  0  0  0
   -0.4565   -0.1590   -2.0758 C   0  0  0  0  0  0  0  0  0  0  0  0
   -2.2564    0.9233   -1.6354 H   0  0  0  0  0  0  0  0  0  0  0  0
   -2.4487   -0.2662   -2.8905 H   0  0  0  0  0  0  0  0  0  0  0  0
   -3.8392   -3.9950   -1.8401 H   0  0  0  0  0  0  0  0  0  0  0  0
   -5.5724   -2.1076   -1.3694 H   0  0  0  0  0  0  0  0  0  0  0  0
   -4.8283   -2.7720    0.1215 H   0  0  0  0  0  0  0  0  0  0  0  0
   -6.3256   -1.2080    0.5532 H   0  0  0  0  0  0  0  0  0  0  0  0
   -7.4259    0.4204    1.9676 H   0  0  0  0  0  0  0  0  0  0  0  0
   -6.3391    2.6090    2.4631 H   0  0  0  0  0  0  0  0  0  0  0  0
   -4.1079    3.1059    1.4680 H   0  0  0  0  0  0  0  0  0  0  0  0
   -3.0023    1.4790    0.0573 H   0  0  0  0  0  0  0  0  0  0  0  0
   -1.9186   -2.0251    0.9854 H   0  0  0  0  0  0  0  0  0  0  0  0
   -1.8611   -0.2758    1.0100 H   0  0  0  0  0  0  0  0  0  0  0  0
    0.1159   -2.1277   -0.3892 H   0  0  0  0  0  0  0  0  0  0  0  0
    0.4306   -1.1482    1.0116 H   0  0  0  0  0  0  0  0  0  0  0  0
   -0.6125    1.5299    0.1999 H   0  0  0  0  0  0  0  0  0  0  0  0
    0.5923    1.9378   -1.0174 H   0  0  0  0  0  0  0  0  0  0  0  0
    1.4831    2.3726    1.2090 H   0  0  0  0  0  0  0  0  0  0  0  0
    1.2039    0.7198    1.7233 H   0  0  0  0  0  0  0  0  0  0  0  0
    2.7861    0.5899   -0.7389 H   0  0  0  0  0  0  0  0  0  0  0  0
    4.7079    1.2942   -1.6595 H   0  0  0  0  0  0  0  0  0  0  0  0
    6.8324    0.5968   -2.7191 H   0  0  0  0  0  0  0  0  0  0  0  0
    8.2251   -0.9612    1.0186 H   0  0  0  0  0  0  0  0  0  0  0  0
    6.1019   -0.3001    2.1024 H   0  0  0  0  0  0  0  0  0  0  0  0
    3.1608    1.8487    2.7851 H   0  0  0  0  0  0  0  0  0  0  0  0
    4.9147    1.8840    2.6508 H   0  0  0  0  0  0  0  0  0  0  0  0
    4.0847    0.3707    3.0520 H   0  0  0  0  0  0  0  0  0  0  0  0
   -0.1063    0.6491   -2.7285 H   0  0  0  0  0  0  0  0  0  0  0  0
   -0.1812   -1.0879   -2.5868 H   0  0  0  0  0  0  0  0  0  0  0  0
  1 30  1  0  0  0  0
  2  1  1  6  0  0  0
  2  7  1  0  0  0  0
  2 14  1  0  0  0  0
  3  2  1  0  0  0  0
  4  3  2  0  0  0  0
  5  3  1  0  0  0  0
  5  6  1  0  0  0  0
  6  7  1  0  0  0  0
  6 34  1  0  0  0  0
  7  8  1  0  0  0  0
  8 13  2  0  0  0  0
  8  9  1  0  0  0  0
  9 10  2  0  0  0  0
 10 11  1  0  0  0  0
 10 36  1  0  0  0  0
 11 37  1  0  0  0  0
 12 38  1  0  0  0  0
 12 11  2  0  0  0  0
 13 12  1  0  0  0  0
 14 40  1  0  0  0  0
 14 41  1  0  0  0  0
 15 14  1  0  0  0  0
 15 43  1  0  0  0  0
 16 17  1  0  0  0  0
 16 15  1  0  0  0  0
 17 44  1  0  0  0  0
 17 18  1  0  0  0  0
 18 46  1  0  0  0  0
 18 47  1  0  0  0  0
 19 18  1  0  0  0  0
 19 20  2  0  0  0  0
 20 28  1  0  0  0  0
 21 20  1  0  0  0  0
 21 26  2  0  0  0  0
 22 21  1  0  0  0  0
 23 22  2  0  0  0  0
 23 24  1  0  0  0  0
 24 25  2  0  0  0  0
 25 51  1  0  0  0  0
 25 26  1  0  0  0  0
 26 52  1  0  0  0  0
 27 24  1  0  0  0  0
 28 54  1  0  0  0  0
 28 53  1  0  0  0  0
 28 55  1  0  0  0  0
 29  1  1  0  0  0  0
 29 16  1  0  0  0  0
 31  1  1  0  0  0  0
 32  5  1  0  0  0  0
 33  6  1  0  0  0  0
 35  9  1  0  0  0  0
 39 13  1  0  0  0  0
 42 15  1  0  0  0  0
 45 17  1  0  0  0  0
 48 19  1  0  0  0  0
 49 22  1  0  0  0  0
 50 23  1  0  0  0  0
 56 29  1  0  0  0  0
 57 29  1  0  0  0  0
M  END
