46.8453
 OpenBabel10231816213D

 36 36  0  0  1  0  0  0  0  0999 V2000
    3.7622    1.7440   -0.6946 C   0  0  0  0  0  0  0  0  0  0  0  0
    4.9321    0.8277   -0.5154 C   0  0  0  0  0  0  0  0  0  0  0  0
    3.7779    0.7604    0.4364 C   0  0  0  0  0  0  0  0  0  0  0  0
    2.9154   -0.4052    0.3382 N   0  0  0  0  0  0  0  0  0  0  0  0
    1.5161   -0.0955    0.6861 C   0  0  0  0  0  0  0  0  0  0  0  0
    0.7044   -1.3686    0.3742 C   0  0  0  0  0  0  0  0  0  0  0  0
   -0.8182   -1.2004    0.6181 C   0  0  1  0  0  0  0  0  0  0  0  0
   -1.0622   -0.9869    2.0585 N   0  0  0  0  0  0  0  0  0  0  0  0
   -1.4443   -0.0796   -0.2351 C   0  0  0  0  0  0  0  0  0  0  0  0
   -2.9760   -0.0344   -0.1568 C   0  0  0  0  0  0  0  0  0  0  0  0
   -3.5546    1.0330   -1.0929 C   0  0  0  0  0  0  0  0  0  0  0  0
   -5.0712    1.1221   -0.9885 C   0  0  0  0  0  0  0  0  0  0  0  0
    1.1908   -2.4197    1.2188 O   0  0  0  0  0  0  0  0  0  0  0  0
    0.9533   -1.7972   -0.9597 O   0  0  0  0  0  0  0  0  0  0  0  0
    3.0855    1.5482   -1.5178 H   0  0  0  0  0  0  0  0  0  0  0  0
    3.8796    2.7896   -0.4460 H   0  0  0  0  0  0  0  0  0  0  0  0
    5.8567    1.2396   -0.1460 H   0  0  0  0  0  0  0  0  0  0  0  0
    5.0554    0.0070   -1.2130 H   0  0  0  0  0  0  0  0  0  0  0  0
    3.9292    1.1526    1.4400 H   0  0  0  0  0  0  0  0  0  0  0  0
    3.2232   -1.1735    0.9415 H   0  0  0  0  0  0  0  0  0  0  0  0
    1.1719    0.7444    0.0730 H   0  0  0  0  0  0  0  0  0  0  0  0
    1.4389    0.1761    1.7449 H   0  0  0  0  0  0  0  0  0  0  0  0
   -1.2891   -2.1501    0.3271 H   0  0  0  0  0  0  0  0  0  0  0  0
   -0.4880   -1.6699    2.5662 H   0  0  0  0  0  0  0  0  0  0  0  0
   -2.0353   -1.2145    2.2763 H   0  0  0  0  0  0  0  0  0  0  0  0
   -1.1527   -0.2154   -1.2815 H   0  0  0  0  0  0  0  0  0  0  0  0
   -1.0529    0.8972    0.0788 H   0  0  0  0  0  0  0  0  0  0  0  0
   -3.2856    0.1827    0.8706 H   0  0  0  0  0  0  0  0  0  0  0  0
   -3.3869   -1.0153   -0.4240 H   0  0  0  0  0  0  0  0  0  0  0  0
   -3.2792    0.8077   -2.1293 H   0  0  0  0  0  0  0  0  0  0  0  0
   -3.1217    2.0104   -0.8489 H   0  0  0  0  0  0  0  0  0  0  0  0
   -5.3836    1.3780    0.0291 H   0  0  0  0  0  0  0  0  0  0  0  0
   -5.5438    0.1734   -1.2635 H   0  0  0  0  0  0  0  0  0  0  0  0
   -5.4557    1.8960   -1.6614 H   0  0  0  0  0  0  0  0  0  0  0  0
    1.1502   -3.1978    0.6374 H   0  0  0  0  0  0  0  0  0  0  0  0
    1.8581   -1.4659   -1.1407 H   0  0  0  0  0  0  0  0  0  0  0  0
  1  2  1  0  0  0  0
  1 16  1  0  0  0  0
  1  3  1  0  0  0  0
  2 17  1  0  0  0  0
  2  3  1  0  0  0  0
  3 19  1  0  0  0  0
  4  3  1  0  0  0  0
  4  5  1  0  0  0  0
  4 20  1  0  0  0  0
  5 22  1  0  0  0  0
  6  7  1  0  0  0  0
  6  5  1  0  0  0  0
  6 13  1  0  0  0  0
  7 23  1  6  0  0  0
  7  8  1  0  0  0  0
  8 25  1  0  0  0  0
  8 24  1  0  0  0  0
  9 10  1  0  0  0  0
  9 27  1  0  0  0  0
  9  7  1  0  0  0  0
 10 28  1  0  0  0  0
 11 12  1  0  0  0  0
 11 31  1  0  0  0  0
 11 10  1  0  0  0  0
 12 32  1  0  0  0  0
 14  6  1  0  0  0  0
 15  1  1  0  0  0  0
 18  2  1  0  0  0  0
 21  5  1  0  0  0  0
 26  9  1  0  0  0  0
 29 10  1  0  0  0  0
 30 11  1  0  0  0  0
 33 12  1  0  0  0  0
 34 12  1  0  0  0  0
 35 13  1  0  0  0  0
 36 14  1  0  0  0  0
M  END
