-33.9748
 OpenBabel10231816213D

 41 42  0  0  0  0  0  0  0  0999 V2000
   -6.0432   -0.2823    1.9859 C   0  0  0  0  0  0  0  0  0  0  0  0
   -5.6589    0.3304    0.7139 N   0  0  0  0  0  0  0  0  0  0  0  0
   -6.5934    0.0734   -0.3811 C   0  0  0  0  0  0  0  0  0  0  0  0
   -4.2906    0.3903    0.4173 C   0  0  0  0  0  0  0  0  0  0  0  0
   -3.7804    0.1060   -0.8556 C   0  0  0  0  0  0  0  0  0  0  0  0
   -2.4169    0.2166   -1.1530 C   0  0  0  0  0  0  0  0  0  0  0  0
   -1.5054    0.6202   -0.1844 C   0  0  0  0  0  0  0  0  0  0  0  0
   -1.9868    0.9188    1.0906 C   0  0  0  0  0  0  0  0  0  0  0  0
   -3.3559    0.8104    1.3770 C   0  0  0  0  0  0  0  0  0  0  0  0
   -0.1243    0.7538   -0.4231 N   0  0  0  0  0  0  0  0  0  0  0  0
    0.5486    0.5102   -1.5940 C   0  0  0  0  0  0  0  0  0  0  0  0
    0.0674    0.1264   -2.6577 O   0  0  0  0  0  0  0  0  0  0  0  0
    1.9084    0.7172   -1.5615 N   0  0  0  0  0  0  0  0  0  0  0  0
    2.6897    1.1418   -0.5074 C   0  0  0  0  0  0  0  0  0  0  0  0
    2.2249    1.4455    0.5948 O   0  0  0  0  0  0  0  0  0  0  0  0
    4.1816    1.1854   -0.7999 C   0  0  0  0  0  0  0  0  0  0  0  0
    4.9128   -0.0400   -0.3049 C   0  0  0  0  0  0  0  0  0  0  0  0
    4.6959   -0.5212    0.9951 C   0  0  0  0  0  0  0  0  0  0  0  0
    5.3747   -1.6444    1.4646 C   0  0  0  0  0  0  0  0  0  0  0  0
    6.2958   -2.2924    0.6476 C   0  0  0  0  0  0  0  0  0  0  0  0
    6.5405   -1.8134   -0.6382 C   0  0  0  0  0  0  0  0  0  0  0  0
    5.8575   -0.6891   -1.1124 C   0  0  0  0  0  0  0  0  0  0  0  0
   -5.4669    0.0854    2.8386 H   0  0  0  0  0  0  0  0  0  0  0  0
   -5.9456   -1.3727    1.9384 H   0  0  0  0  0  0  0  0  0  0  0  0
   -7.0908   -0.0457    2.2045 H   0  0  0  0  0  0  0  0  0  0  0  0
   -6.4409    0.7782   -1.2063 H   0  0  0  0  0  0  0  0  0  0  0  0
   -7.6245    0.2166   -0.0393 H   0  0  0  0  0  0  0  0  0  0  0  0
   -6.5021   -0.9536   -0.7521 H   0  0  0  0  0  0  0  0  0  0  0  0
   -4.4272   -0.2133   -1.6650 H   0  0  0  0  0  0  0  0  0  0  0  0
   -2.1096   -0.0191   -2.1658 H   0  0  0  0  0  0  0  0  0  0  0  0
   -1.3163    1.2572    1.8765 H   0  0  0  0  0  0  0  0  0  0  0  0
   -3.6861    1.1086    2.3707 H   0  0  0  0  0  0  0  0  0  0  0  0
    0.4538    1.0617    0.3574 H   0  0  0  0  0  0  0  0  0  0  0  0
    2.3436    0.4845   -2.4423 H   0  0  0  0  0  0  0  0  0  0  0  0
    4.3402    1.3230   -1.8765 H   0  0  0  0  0  0  0  0  0  0  0  0
    4.5942    2.0756   -0.3104 H   0  0  0  0  0  0  0  0  0  0  0  0
    3.9885   -0.0272    1.6594 H   0  0  0  0  0  0  0  0  0  0  0  0
    5.1811   -2.0086    2.4700 H   0  0  0  0  0  0  0  0  0  0  0  0
    6.8253   -3.1671    1.0160 H   0  0  0  0  0  0  0  0  0  0  0  0
    7.2663   -2.3173   -1.2719 H   0  0  0  0  0  0  0  0  0  0  0  0
    6.0749   -0.3297   -2.1157 H   0  0  0  0  0  0  0  0  0  0  0  0
  1 25  1  0  0  0  0
  1 23  1  0  0  0  0
  2  1  1  0  0  0  0
  3 27  1  0  0  0  0
  3  2  1  0  0  0  0
  4  2  1  0  0  0  0
  4  9  2  0  0  0  0
  5  4  1  0  0  0  0
  6  5  2  0  0  0  0
  6  7  1  0  0  0  0
  7  8  2  0  0  0  0
  8  9  1  0  0  0  0
  8 31  1  0  0  0  0
  9 32  1  0  0  0  0
 10  7  1  0  0  0  0
 10 33  1  0  0  0  0
 11 13  1  0  0  0  0
 11 10  1  0  0  0  0
 12 11  2  0  0  0  0
 13 14  1  0  0  0  0
 14 15  2  0  0  0  0
 16 14  1  0  0  0  0
 16 36  1  0  0  0  0
 16 17  1  0  0  0  0
 17 18  2  0  0  0  0
 18 19  1  0  0  0  0
 18 37  1  0  0  0  0
 19 38  1  0  0  0  0
 20 39  1  0  0  0  0
 20 19  2  0  0  0  0
 21 20  1  0  0  0  0
 22 21  2  0  0  0  0
 22 17  1  0  0  0  0
 24  1  1  0  0  0  0
 26  3  1  0  0  0  0
 28  3  1  0  0  0  0
 29  5  1  0  0  0  0
 30  6  1  0  0  0  0
 34 13  1  0  0  0  0
 35 16  1  0  0  0  0
 40 21  1  0  0  0  0
 41 22  1  0  0  0  0
M  END
