77.3454
 OpenBabel10231816213D

 45 47  0  0  1  0  0  0  0  0999 V2000
   -0.5611   -2.6903   -0.4329 S   0  0  0  0  0  0  0  0  0  0  0  0
   -1.4829   -1.8184   -1.5875 C   0  0  0  0  0  0  0  0  0  0  0  0
   -0.6630   -1.2138   -2.5217 C   0  0  0  0  0  0  0  0  0  0  0  0
    0.7193   -1.4198   -2.2503 C   0  0  0  0  0  0  0  0  0  0  0  0
    0.9281   -2.1759   -1.1110 C   0  0  0  0  0  0  0  0  0  0  0  0
    2.2299   -2.5454   -0.4365 C   0  0  1  0  0  0  0  0  0  0  0  0
    3.0194   -3.2076   -1.4267 O   0  0  0  0  0  0  0  0  0  0  0  0
    2.9613   -1.3521    0.1677 C   0  0  0  0  0  0  0  0  0  0  0  0
    4.3373   -1.1479   -0.0209 C   0  0  0  0  0  0  0  0  0  0  0  0
    4.9987   -0.0628    0.5726 C   0  0  0  0  0  0  0  0  0  0  0  0
    4.2991    0.8315    1.3812 C   0  0  0  0  0  0  0  0  0  0  0  0
    4.8201    1.9222    2.0196 O   0  0  0  0  0  0  0  0  0  0  0  0
    6.2078    2.1703    1.8386 C   0  0  0  0  0  0  0  0  0  0  0  0
    2.9371    0.6276    1.5946 C   0  0  0  0  0  0  0  0  0  0  0  0
    2.2761   -0.4530    1.0035 C   0  0  0  0  0  0  0  0  0  0  0  0
   -2.9866   -1.7852   -1.4802 C   0  0  2  0  0  0  0  0  0  0  0  0
   -3.5070   -1.6733   -2.8081 O   0  0  0  0  0  0  0  0  0  0  0  0
   -3.4795   -0.6342   -0.6206 C   0  0  0  0  0  0  0  0  0  0  0  0
   -3.5644   -0.7879    0.7726 C   0  0  0  0  0  0  0  0  0  0  0  0
   -3.9722    0.2759    1.5825 C   0  0  0  0  0  0  0  0  0  0  0  0
   -4.3049    1.5102    1.0236 C   0  0  0  0  0  0  0  0  0  0  0  0
   -4.6823    2.4663    1.9261 O   0  0  0  0  0  0  0  0  0  0  0  0
   -5.0279    3.7408    1.3984 C   0  0  0  0  0  0  0  0  0  0  0  0
   -4.2278    1.6722   -0.3590 C   0  0  0  0  0  0  0  0  0  0  0  0
   -3.8150    0.6099   -1.1715 C   0  0  0  0  0  0  0  0  0  0  0  0
   -1.0427   -0.6235   -3.3480 H   0  0  0  0  0  0  0  0  0  0  0  0
    1.5196   -0.9996   -2.8473 H   0  0  0  0  0  0  0  0  0  0  0  0
    2.0670   -3.2744    0.3662 H   0  0  0  0  0  0  0  0  0  0  0  0
    3.1626   -2.5656   -2.1401 H   0  0  0  0  0  0  0  0  0  0  0  0
    4.9206   -1.8410   -0.6245 H   0  0  0  0  0  0  0  0  0  0  0  0
    6.0618    0.0476    0.3876 H   0  0  0  0  0  0  0  0  0  0  0  0
    6.4379    2.3693    0.7872 H   0  0  0  0  0  0  0  0  0  0  0  0
    6.8111    1.3431    2.2271 H   0  0  0  0  0  0  0  0  0  0  0  0
    6.4651    3.0675    2.4108 H   0  0  0  0  0  0  0  0  0  0  0  0
    2.3815    1.3129    2.2303 H   0  0  0  0  0  0  0  0  0  0  0  0
    1.2146   -0.5795    1.2054 H   0  0  0  0  0  0  0  0  0  0  0  0
   -3.3760   -2.7288   -1.0785 H   0  0  0  0  0  0  0  0  0  0  0  0
   -3.1452   -2.4268   -3.3029 H   0  0  0  0  0  0  0  0  0  0  0  0
   -3.3044   -1.7343    1.2414 H   0  0  0  0  0  0  0  0  0  0  0  0
   -4.0254    0.1416    2.6604 H   0  0  0  0  0  0  0  0  0  0  0  0
   -5.3017    4.3878    2.2373 H   0  0  0  0  0  0  0  0  0  0  0  0
   -5.8964    3.6702    0.7351 H   0  0  0  0  0  0  0  0  0  0  0  0
   -4.1758    4.2015    0.8875 H   0  0  0  0  0  0  0  0  0  0  0  0
   -4.4775    2.6112   -0.8408 H   0  0  0  0  0  0  0  0  0  0  0  0
   -3.7561    0.7613   -2.2480 H   0  0  0  0  0  0  0  0  0  0  0  0
  2 16  1  0  0  0  0
  2  1  1  0  0  0  0
  3  4  1  0  0  0  0
  3  2  2  0  0  0  0
  4  5  2  0  0  0  0
  5  6  1  0  0  0  0
  5  1  1  0  0  0  0
  6  8  1  0  0  0  0
  6 28  1  1  0  0  0
  7  6  1  0  0  0  0
  8 15  1  0  0  0  0
  9  8  2  0  0  0  0
  9 10  1  0  0  0  0
 10 11  2  0  0  0  0
 11 14  1  0  0  0  0
 11 12  1  0  0  0  0
 13 12  1  0  0  0  0
 13 33  1  0  0  0  0
 13 34  1  0  0  0  0
 14 35  1  0  0  0  0
 15 36  1  0  0  0  0
 15 14  2  0  0  0  0
 16 37  1  1  0  0  0
 16 18  1  0  0  0  0
 17 16  1  0  0  0  0
 18 19  1  0  0  0  0
 19 39  1  0  0  0  0
 19 20  2  0  0  0  0
 20 40  1  0  0  0  0
 21 20  1  0  0  0  0
 21 22  1  0  0  0  0
 23 22  1  0  0  0  0
 23 41  1  0  0  0  0
 24 21  2  0  0  0  0
 25 18  2  0  0  0  0
 25 24  1  0  0  0  0
 26  3  1  0  0  0  0
 27  4  1  0  0  0  0
 29  7  1  0  0  0  0
 30  9  1  0  0  0  0
 31 10  1  0  0  0  0
 32 13  1  0  0  0  0
 38 17  1  0  0  0  0
 42 23  1  0  0  0  0
 43 23  1  0  0  0  0
 44 24  1  0  0  0  0
 45 25  1  0  0  0  0
M  END
