-4.46463
 OpenBabel10231816213D

 66 68  0  0  1  0  0  0  0  0999 V2000
    0.6440   -1.2559    1.8201 C   0  0  2  0  0  0  0  0  0  0  0  0
    0.6609   -2.7588    1.4503 C   0  0  0  0  0  0  0  0  0  0  0  0
   -0.6535   -3.1985    0.8246 C   0  0  0  0  0  0  0  0  0  0  0  0
   -0.7067   -3.6752   -0.4914 C   0  0  0  0  0  0  0  0  0  0  0  0
   -1.9367   -3.8383   -1.1417 C   0  0  0  0  0  0  0  0  0  0  0  0
   -3.1166   -3.4904   -0.4868 C   0  0  0  0  0  0  0  0  0  0  0  0
   -3.0857   -3.1378    0.8542 C   0  0  0  0  0  0  0  0  0  0  0  0
   -1.8599   -3.0081    1.5113 C   0  0  0  0  0  0  0  0  0  0  0  0
   -4.2765   -3.4701   -1.2156 O   0  0  0  0  0  0  0  0  0  0  0  0
   -4.8208   -2.1385   -1.3578 C   0  0  0  0  0  0  0  0  0  0  0  0
   -3.8702   -1.2128   -2.1350 C   0  0  0  0  0  0  0  0  0  0  0  0
   -4.2096    0.2706   -2.0120 C   0  0  0  0  0  0  0  0  0  0  0  0
   -4.2793    0.7501   -0.5755 C   0  0  0  0  0  0  0  0  0  0  0  0
   -5.3628    0.7230    0.0362 O   0  0  0  0  0  0  0  0  0  0  0  0
   -3.1644    1.1932    0.0732 N   0  0  0  0  0  0  0  0  0  0  0  0
   -1.7688    0.8663   -0.2458 C   0  0  2  0  0  0  0  0  0  0  0  0
   -1.2032    0.1262    0.9695 C   0  0  0  0  0  0  0  0  0  0  0  0
   -1.7831    0.1397    2.0600 O   0  0  0  0  0  0  0  0  0  0  0  0
    0.0277   -0.4413    0.7713 N   0  0  0  0  0  0  0  0  0  0  0  0
   -0.9059    2.0842   -0.5344 C   0  0  0  0  0  0  0  0  0  0  0  0
   -0.3779    2.7294    0.7348 C   0  0  0  0  0  0  0  0  0  0  0  0
    0.7434    2.5327    1.1721 O   0  0  0  0  0  0  0  0  0  0  0  0
   -1.3020    3.4907    1.3886 N   0  0  0  0  0  0  0  0  0  0  0  0
    2.0230   -0.7079    2.2053 C   0  0  2  0  0  0  0  0  0  0  0  0
    1.8588    0.5415    2.9124 O   0  0  0  0  0  0  0  0  0  0  0  0
    2.9751   -0.4644    1.0254 C   0  0  0  0  0  0  0  0  0  0  0  0
    4.2190    0.0657    1.5870 N   0  0  0  0  0  0  0  0  0  0  0  0
    5.4772    0.5125    0.5908 S   0  0  0  0  0  0  0  0  0  0  0  0
    6.4200    1.2069    1.4402 O   0  0  0  0  0  0  0  0  0  0  0  0
    5.8489   -0.6487   -0.1877 O   0  0  0  0  0  0  0  0  0  0  0  0
    4.7552    1.7032   -0.5104 C   0  0  0  0  0  0  0  0  0  0  0  0
    4.8194    3.0623   -0.2058 C   0  0  0  0  0  0  0  0  0  0  0  0
    4.2382    3.9923   -1.0710 C   0  0  0  0  0  0  0  0  0  0  0  0
    3.6164    3.5621   -2.2453 C   0  0  0  0  0  0  0  0  0  0  0  0
    3.5797    2.2026   -2.5602 C   0  0  0  0  0  0  0  0  0  0  0  0
    4.1591    1.2723   -1.6970 C   0  0  0  0  0  0  0  0  0  0  0  0
    0.0166   -1.1378    2.7122 H   0  0  0  0  0  0  0  0  0  0  0  0
    1.4828   -2.9655    0.7536 H   0  0  0  0  0  0  0  0  0  0  0  0
    0.8611   -3.3486    2.3550 H   0  0  0  0  0  0  0  0  0  0  0  0
    0.2127   -3.8877   -1.0314 H   0  0  0  0  0  0  0  0  0  0  0  0
   -1.9721   -4.1636   -2.1784 H   0  0  0  0  0  0  0  0  0  0  0  0
   -4.0108   -2.9340    1.3812 H   0  0  0  0  0  0  0  0  0  0  0  0
   -1.8469   -2.6800    2.5494 H   0  0  0  0  0  0  0  0  0  0  0  0
   -5.0720   -1.7217   -0.3780 H   0  0  0  0  0  0  0  0  0  0  0  0
   -5.7647   -2.2547   -1.9071 H   0  0  0  0  0  0  0  0  0  0  0  0
   -2.8512   -1.3813   -1.7882 H   0  0  0  0  0  0  0  0  0  0  0  0
   -3.8655   -1.5047   -3.1935 H   0  0  0  0  0  0  0  0  0  0  0  0
   -3.4873    0.8750   -2.5778 H   0  0  0  0  0  0  0  0  0  0  0  0
   -5.1939    0.4562   -2.4612 H   0  0  0  0  0  0  0  0  0  0  0  0
   -3.3359    1.2405    1.0806 H   0  0  0  0  0  0  0  0  0  0  0  0
   -1.7539    0.2072   -1.1110 H   0  0  0  0  0  0  0  0  0  0  0  0
    0.4271   -0.4487   -0.1580 H   0  0  0  0  0  0  0  0  0  0  0  0
   -0.0215    1.7822   -1.1126 H   0  0  0  0  0  0  0  0  0  0  0  0
   -1.4596    2.8132   -1.1318 H   0  0  0  0  0  0  0  0  0  0  0  0
   -2.2838    3.4169    1.1515 H   0  0  0  0  0  0  0  0  0  0  0  0
   -1.0663    3.8421    2.3090 H   0  0  0  0  0  0  0  0  0  0  0  0
    2.4963   -1.3911    2.9167 H   0  0  0  0  0  0  0  0  0  0  0  0
    1.3248    1.1408    2.3439 H   0  0  0  0  0  0  0  0  0  0  0  0
    3.1725   -1.3807    0.4667 H   0  0  0  0  0  0  0  0  0  0  0  0
    2.5438    0.2929    0.3650 H   0  0  0  0  0  0  0  0  0  0  0  0
    4.0718    0.7363    2.3462 H   0  0  0  0  0  0  0  0  0  0  0  0
    5.3132    3.3953    0.7037 H   0  0  0  0  0  0  0  0  0  0  0  0
    4.2724    5.0517   -0.8272 H   0  0  0  0  0  0  0  0  0  0  0  0
    3.1665    4.2883   -2.9189 H   0  0  0  0  0  0  0  0  0  0  0  0
    3.1049    1.8679   -3.4785 H   0  0  0  0  0  0  0  0  0  0  0  0
    4.1368    0.2126   -1.9351 H   0  0  0  0  0  0  0  0  0  0  0  0
  1 24  1  0  0  0  0
  1 37  1  1  0  0  0
  2  1  1  0  0  0  0
  2 39  1  0  0  0  0
  3  2  1  0  0  0  0
  3  8  2  0  0  0  0
  4  3  1  0  0  0  0
  5  4  2  0  0  0  0
  5  6  1  0  0  0  0
  6  7  2  0  0  0  0
  7 42  1  0  0  0  0
  7  8  1  0  0  0  0
  8 43  1  0  0  0  0
  9  6  1  0  0  0  0
 10  9  1  0  0  0  0
 10 44  1  0  0  0  0
 11 12  1  0  0  0  0
 11 46  1  0  0  0  0
 11 10  1  0  0  0  0
 12 13  1  0  0  0  0
 13 14  2  0  0  0  0
 13 15  1  0  0  0  0
 15 50  1  0  0  0  0
 16 51  1  6  0  0  0
 16 15  1  0  0  0  0
 16 17  1  0  0  0  0
 17 18  2  0  0  0  0
 19 17  1  0  0  0  0
 19  1  1  0  0  0  0
 20 16  1  0  0  0  0
 20 21  1  0  0  0  0
 21 22  2  0  0  0  0
 21 23  1  0  0  0  0
 23 56  1  0  0  0  0
 24 25  1  0  0  0  0
 24 57  1  1  0  0  0
 26 27  1  0  0  0  0
 26 24  1  0  0  0  0
 27 61  1  0  0  0  0
 28 29  2  0  0  0  0
 28 27  1  0  0  0  0
 30 28  2  0  0  0  0
 31 32  1  0  0  0  0
 31 28  1  0  0  0  0
 32 62  1  0  0  0  0
 33 63  1  0  0  0  0
 33 32  2  0  0  0  0
 34 33  1  0  0  0  0
 35 34  2  0  0  0  0
 35 36  1  0  0  0  0
 36 31  2  0  0  0  0
 38  2  1  0  0  0  0
 40  4  1  0  0  0  0
 41  5  1  0  0  0  0
 45 10  1  0  0  0  0
 47 11  1  0  0  0  0
 48 12  1  0  0  0  0
 49 12  1  0  0  0  0
 52 19  1  0  0  0  0
 53 20  1  0  0  0  0
 54 20  1  0  0  0  0
 55 23  1  0  0  0  0
 58 25  1  0  0  0  0
 59 26  1  0  0  0  0
 60 26  1  0  0  0  0
 64 34  1  0  0  0  0
 65 35  1  0  0  0  0
 66 36  1  0  0  0  0
M  END
