125.664
 OpenBabel10231816213D

 34 35  0  0  1  0  0  0  0  0999 V2000
   -0.6227   -0.3080    0.4557 C   0  0  1  0  0  0  0  0  0  0  0  0
    0.1800    0.1463    1.5953 N   0  0  0  0  0  0  0  0  0  0  0  0
    1.1638    1.1752    1.2555 C   0  0  0  0  0  0  0  0  0  0  0  0
    2.2011    0.6884    0.2806 C   0  0  0  0  0  0  0  0  0  0  0  0
    2.6647   -0.6305    0.2997 C   0  0  0  0  0  0  0  0  0  0  0  0
    3.6061   -1.0794   -0.6159 C   0  0  0  0  0  0  0  0  0  0  0  0
    4.1244   -0.1966   -1.5649 C   0  0  0  0  0  0  0  0  0  0  0  0
    3.6752    1.1218   -1.6001 C   0  0  0  0  0  0  0  0  0  0  0  0
    2.7253    1.5657   -0.6869 C   0  0  0  0  0  0  0  0  0  0  0  0
   -1.7053   -1.2778    0.9739 C   0  0  1  0  0  0  0  0  0  0  0  0
   -2.4077   -0.7524    2.1197 O   0  0  0  0  0  0  0  0  0  0  0  0
   -2.6799   -1.3521   -0.1998 C   0  0  1  0  0  0  0  0  0  0  0  0
   -3.9567   -1.8462    0.2088 O   0  0  0  0  0  0  0  0  0  0  0  0
   -2.7844    0.1244   -0.6308 C   0  0  1  0  0  0  0  0  0  0  0  0
   -3.7438    0.7627    0.2337 O   0  0  0  0  0  0  0  0  0  0  0  0
   -1.4162    0.7688   -0.3252 C   0  0  2  0  0  0  0  0  0  0  0  0
   -0.5736    1.4016   -1.8213 S   0  0  0  0  0  0  0  0  0  0  0  0
    0.0080   -0.8754   -0.2309 H   0  0  0  0  0  0  0  0  0  0  0  0
   -0.4100    0.4186    2.3718 H   0  0  0  0  0  0  0  0  0  0  0  0
    0.6733    2.0818    0.8815 H   0  0  0  0  0  0  0  0  0  0  0  0
    1.6742    1.4731    2.1829 H   0  0  0  0  0  0  0  0  0  0  0  0
    2.2408   -1.3337    1.0233 H   0  0  0  0  0  0  0  0  0  0  0  0
    3.9448   -2.1103   -0.5846 H   0  0  0  0  0  0  0  0  0  0  0  0
    4.8739   -0.5390   -2.2742 H   0  0  0  0  0  0  0  0  0  0  0  0
    4.0717    1.8126   -2.3457 H   0  0  0  0  0  0  0  0  0  0  0  0
    2.3563    2.5841   -0.7446 H   0  0  0  0  0  0  0  0  0  0  0  0
   -1.2983   -2.2501    1.2608 H   0  0  0  0  0  0  0  0  0  0  0  0
   -2.9172    0.0254    1.8155 H   0  0  0  0  0  0  0  0  0  0  0  0
   -2.2943   -1.9713   -1.0165 H   0  0  0  0  0  0  0  0  0  0  0  0
   -3.9160   -1.9225    1.1863 H   0  0  0  0  0  0  0  0  0  0  0  0
   -3.1236    0.2448   -1.6629 H   0  0  0  0  0  0  0  0  0  0  0  0
   -4.5363    0.1719    0.2146 H   0  0  0  0  0  0  0  0  0  0  0  0
   -1.5798    1.6539    0.2975 H   0  0  0  0  0  0  0  0  0  0  0  0
   -0.2179    0.2242   -2.3528 H   0  0  0  0  0  0  0  0  0  0  0  0
  1 18  1  6  0  0  0
  1 10  1  0  0  0  0
  1  2  1  0  0  0  0
  2 19  1  0  0  0  0
  3  2  1  0  0  0  0
  3 21  1  0  0  0  0
  4  5  1  0  0  0  0
  4  3  1  0  0  0  0
  5 22  1  0  0  0  0
  6 23  1  0  0  0  0
  6  5  2  0  0  0  0
  7  6  1  0  0  0  0
  8  7  2  0  0  0  0
  8  9  1  0  0  0  0
  9  4  2  0  0  0  0
 10 27  1  1  0  0  0
 10 11  1  0  0  0  0
 12 29  1  6  0  0  0
 12 13  1  0  0  0  0
 12 10  1  0  0  0  0
 13 30  1  0  0  0  0
 14 31  1  6  0  0  0
 14 16  1  0  0  0  0
 14 12  1  0  0  0  0
 14 15  1  0  0  0  0
 16 33  1  1  0  0  0
 16  1  1  0  0  0  0
 17 16  1  0  0  0  0
 20  3  1  0  0  0  0
 24  7  1  0  0  0  0
 25  8  1  0  0  0  0
 26  9  1  0  0  0  0
 28 11  1  0  0  0  0
 32 15  1  0  0  0  0
 34 17  1  0  0  0  0
M  END
