-38.4012
 OpenBabel10231816213D

 24 23  0  0  1  0  0  0  0  0999 V2000
   -0.3635   -1.1114   -0.1245 C   0  0  2  0  0  0  0  0  0  0  0  0
   -1.1266   -2.3117    0.4375 C   0  0  0  0  0  0  0  0  0  0  0  0
   -0.7984   -3.4829    0.3361 O   0  0  0  0  0  0  0  0  0  0  0  0
   -2.2040   -1.9656    1.1817 O   0  0  0  0  0  0  0  0  0  0  0  0
    0.8822   -0.8484    0.7289 C   0  0  0  0  0  0  0  0  0  0  0  0
    1.7146    0.3175    0.1933 C   0  0  0  0  0  0  0  0  0  0  0  0
    3.0299    0.4503    0.9146 C   0  0  0  0  0  0  0  0  0  0  0  0
    3.4334   -0.3095    1.7841 O   0  0  0  0  0  0  0  0  0  0  0  0
    3.7420    1.5240    0.5049 O   0  0  0  0  0  0  0  0  0  0  0  0
   -1.2251    0.0715   -0.1893 N   0  0  0  0  0  0  0  0  0  0  0  0
   -1.1665    0.9229   -1.2656 C   0  0  0  0  0  0  0  0  0  0  0  0
   -0.3260    0.8231   -2.1538 O   0  0  0  0  0  0  0  0  0  0  0  0
   -2.1815    2.0250   -1.2439 C   0  0  0  0  0  0  0  0  0  0  0  0
   -0.0683   -1.3823   -1.1434 H   0  0  0  0  0  0  0  0  0  0  0  0
   -2.5529   -2.8217    1.5112 H   0  0  0  0  0  0  0  0  0  0  0  0
    1.4928   -1.7600    0.7585 H   0  0  0  0  0  0  0  0  0  0  0  0
    0.5936   -0.6445    1.7700 H   0  0  0  0  0  0  0  0  0  0  0  0
    1.1663    1.2574    0.3296 H   0  0  0  0  0  0  0  0  0  0  0  0
    1.9260    0.1704   -0.8710 H   0  0  0  0  0  0  0  0  0  0  0  0
    3.3038    2.0395   -0.1992 H   0  0  0  0  0  0  0  0  0  0  0  0
   -1.9825    0.1314    0.4872 H   0  0  0  0  0  0  0  0  0  0  0  0
   -2.1993    2.5123   -2.2247 H   0  0  0  0  0  0  0  0  0  0  0  0
   -1.9088    2.7612   -0.4851 H   0  0  0  0  0  0  0  0  0  0  0  0
   -3.1812    1.6313   -1.0372 H   0  0  0  0  0  0  0  0  0  0  0  0
  1 14  1  6  0  0  0
  1  2  1  0  0  0  0
  1  5  1  0  0  0  0
  2  4  1  0  0  0  0
  3  2  2  0  0  0  0
  4 15  1  0  0  0  0
  5 16  1  0  0  0  0
  5 17  1  0  0  0  0
  6 18  1  0  0  0  0
  6  5  1  0  0  0  0
  6  7  1  0  0  0  0
  7  8  2  0  0  0  0
  9  7  1  0  0  0  0
 10  1  1  0  0  0  0
 10 21  1  0  0  0  0
 11 13  1  0  0  0  0
 11 10  1  0  0  0  0
 12 11  2  0  0  0  0
 13 24  1  0  0  0  0
 13 23  1  0  0  0  0
 19  6  1  0  0  0  0
 20  9  1  0  0  0  0
 22 13  1  0  0  0  0
M  END
