3.85864
 OpenBabel10231816213D

 45 47  0  0  0  0  0  0  0  0999 V2000
   -4.1140   -2.0086    1.1218 O   0  0  0  0  0  0  0  0  0  0  0  0
   -4.7417   -1.4653    0.0429 N   0  0  0  0  0  0  0  0  0  0  0  0
   -3.9517   -0.4867   -0.4436 C   0  0  0  0  0  0  0  0  0  0  0  0
   -2.7190   -0.4536    0.3176 C   0  0  0  0  0  0  0  0  0  0  0  0
   -1.5089    0.3516    0.1764 C   0  0  0  0  0  0  0  0  0  0  0  0
   -1.5404    1.5094   -0.2191 O   0  0  0  0  0  0  0  0  0  0  0  0
   -0.3392   -0.3077    0.5285 N   0  0  0  0  0  0  0  0  0  0  0  0
    0.9254    0.2468    0.4833 C   0  0  0  0  0  0  0  0  0  0  0  0
    1.2758    1.5263    0.1152 C   0  0  0  0  0  0  0  0  0  0  0  0
    2.6357    1.6616    0.1907 N   0  0  0  0  0  0  0  0  0  0  0  0
    3.3529    2.8777   -0.1271 C   0  0  0  0  0  0  0  0  0  0  0  0
    3.1945    0.4692    0.6171 C   0  0  0  0  0  0  0  0  0  0  0  0
    2.1328   -0.4134    0.8035 C   0  0  0  0  0  0  0  0  0  0  0  0
    4.6057    0.2427    0.8171 C   0  0  0  0  0  0  0  0  0  0  0  0
    5.4996    1.0533    0.6252 O   0  0  0  0  0  0  0  0  0  0  0  0
    4.7996   -1.0290    1.2586 O   0  0  0  0  0  0  0  0  0  0  0  0
    6.1703   -1.3607    1.4910 C   0  0  0  0  0  0  0  0  0  0  0  0
    6.2036   -2.7977    1.9637 C   0  0  0  0  0  0  0  0  0  0  0  0
   -2.9264   -1.3975    1.3136 C   0  0  0  0  0  0  0  0  0  0  0  0
   -2.1752   -1.8667    2.4974 C   0  0  0  0  0  0  0  0  0  0  0  0
   -4.4515    0.2680   -1.6141 C   0  0  0  0  0  0  0  0  0  0  0  0
   -5.5639   -0.2232   -2.3300 C   0  0  0  0  0  0  0  0  0  0  0  0
   -6.0808    0.4486   -3.4427 C   0  0  0  0  0  0  0  0  0  0  0  0
   -5.5022    1.6397   -3.8619 C   0  0  0  0  0  0  0  0  0  0  0  0
   -4.4185    2.1571   -3.1622 C   0  0  0  0  0  0  0  0  0  0  0  0
   -3.9064    1.4777   -2.0497 C   0  0  0  0  0  0  0  0  0  0  0  0
   -0.3805   -1.2806    0.7897 H   0  0  0  0  0  0  0  0  0  0  0  0
    0.6693    2.3654   -0.2003 H   0  0  0  0  0  0  0  0  0  0  0  0
    2.6324    3.6917   -0.2351 H   0  0  0  0  0  0  0  0  0  0  0  0
    4.0401    3.1181    0.6877 H   0  0  0  0  0  0  0  0  0  0  0  0
    3.8970    2.7389   -1.0656 H   0  0  0  0  0  0  0  0  0  0  0  0
    2.2381   -1.4392    1.1389 H   0  0  0  0  0  0  0  0  0  0  0  0
    6.7414   -1.2502    0.5622 H   0  0  0  0  0  0  0  0  0  0  0  0
    6.5878   -0.6964    2.2565 H   0  0  0  0  0  0  0  0  0  0  0  0
    5.7574   -3.4553    1.2102 H   0  0  0  0  0  0  0  0  0  0  0  0
    7.2250   -3.1290    2.1642 H   0  0  0  0  0  0  0  0  0  0  0  0
    5.6070   -2.9114    2.8750 H   0  0  0  0  0  0  0  0  0  0  0  0
   -1.5445   -1.0732    2.9083 H   0  0  0  0  0  0  0  0  0  0  0  0
   -1.5350   -2.7144    2.2336 H   0  0  0  0  0  0  0  0  0  0  0  0
   -2.8565   -2.1904    3.2903 H   0  0  0  0  0  0  0  0  0  0  0  0
   -6.0532   -1.1462   -2.0214 H   0  0  0  0  0  0  0  0  0  0  0  0
   -6.9351    0.0371   -3.9737 H   0  0  0  0  0  0  0  0  0  0  0  0
   -5.8969    2.1675   -4.7245 H   0  0  0  0  0  0  0  0  0  0  0  0
   -3.9648    3.0959   -3.4715 H   0  0  0  0  0  0  0  0  0  0  0  0
   -3.0853    1.9517   -1.5378 H   0  0  0  0  0  0  0  0  0  0  0  0
  1 19  1  0  0  0  0
  2  1  1  0  0  0  0
  3  2  2  0  0  0  0
  3  4  1  0  0  0  0
  4 19  2  0  0  0  0
  5  4  1  0  0  0  0
  5  7  1  0  0  0  0
  6  5  2  0  0  0  0
  7 27  1  0  0  0  0
  8  7  1  0  0  0  0
  8 13  1  0  0  0  0
  9 10  1  0  0  0  0
  9  8  2  0  0  0  0
 10 12  1  0  0  0  0
 11 10  1  0  0  0  0
 11 30  1  0  0  0  0
 12 13  2  0  0  0  0
 12 14  1  0  0  0  0
 13 32  1  0  0  0  0
 14 16  1  0  0  0  0
 15 14  2  0  0  0  0
 16 17  1  0  0  0  0
 17 18  1  0  0  0  0
 17 34  1  0  0  0  0
 18 36  1  0  0  0  0
 18 37  1  0  0  0  0
 19 20  1  0  0  0  0
 20 38  1  0  0  0  0
 20 40  1  0  0  0  0
 21  3  1  0  0  0  0
 22 41  1  0  0  0  0
 22 21  2  0  0  0  0
 23 22  1  0  0  0  0
 24 23  2  0  0  0  0
 24 25  1  0  0  0  0
 25 26  2  0  0  0  0
 26 21  1  0  0  0  0
 26 45  1  0  0  0  0
 28  9  1  0  0  0  0
 29 11  1  0  0  0  0
 31 11  1  0  0  0  0
 33 17  1  0  0  0  0
 35 18  1  0  0  0  0
 39 20  1  0  0  0  0
 42 23  1  0  0  0  0
 43 24  1  0  0  0  0
 44 25  1  0  0  0  0
M  END
