52.2149
 OpenBabel10231816213D

 57 60  0  0  1  0  0  0  0  0999 V2000
   -2.4743   -0.2715   -1.5618 C   0  0  0  0  0  0  0  0  0  0  0  0
   -2.6309   -1.1941   -0.3426 C   0  0  2  0  0  0  0  0  0  0  0  0
   -2.3630   -2.6596   -0.8022 C   0  0  0  0  0  0  0  0  0  0  0  0
   -1.3028   -3.1818   -1.0581 O   0  0  0  0  0  0  0  0  0  0  0  0
   -3.6134   -3.2662   -0.9006 N   0  0  0  0  0  0  0  0  0  0  0  0
   -4.7110   -2.3989   -0.5516 C   0  0  0  0  0  0  0  0  0  0  0  0
   -4.0489   -1.2903    0.1252 N   0  0  0  0  0  0  0  0  0  0  0  0
   -4.7642   -0.1352    0.4116 C   0  0  0  0  0  0  0  0  0  0  0  0
   -4.6388    0.4561    1.6786 C   0  0  0  0  0  0  0  0  0  0  0  0
   -5.3347    1.6249    2.0060 C   0  0  0  0  0  0  0  0  0  0  0  0
   -6.1614    2.2295    1.0639 C   0  0  0  0  0  0  0  0  0  0  0  0
   -6.2816    1.6667   -0.2048 C   0  0  0  0  0  0  0  0  0  0  0  0
   -5.5855    0.4978   -0.5233 C   0  0  0  0  0  0  0  0  0  0  0  0
   -1.6429   -0.8151    0.7626 C   0  0  0  0  0  0  0  0  0  0  0  0
   -1.2152    0.6493    0.6482 C   0  0  0  0  0  0  0  0  0  0  0  0
   -0.5980    0.9635   -0.6411 N   0  0  0  0  0  0  0  0  0  0  0  0
    0.8341    1.2549   -0.5908 C   0  0  0  0  0  0  0  0  0  0  0  0
    1.7524    0.1020   -0.1477 C   0  0  0  0  0  0  0  0  0  0  0  0
    3.1856    0.5665   -0.0851 C   0  0  0  0  0  0  0  0  0  0  0  0
    4.2469   -0.1960    0.2784 C   0  0  0  0  0  0  0  0  0  0  0  0
    5.6196    0.3803    0.2617 C   0  0  0  0  0  0  0  0  0  0  0  0
    6.5821   -0.0661    1.1788 C   0  0  0  0  0  0  0  0  0  0  0  0
    7.8772    0.4496    1.1785 C   0  0  0  0  0  0  0  0  0  0  0  0
    8.2139    1.4131    0.2429 C   0  0  0  0  0  0  0  0  0  0  0  0
    7.3027    1.8702   -0.6920 C   0  0  0  0  0  0  0  0  0  0  0  0
    6.0095    1.3493   -0.6877 C   0  0  0  0  0  0  0  0  0  0  0  0
    9.4619    1.9136    0.2415 F   0  0  0  0  0  0  0  0  0  0  0  0
    4.0972   -1.6162    0.7477 C   0  0  0  0  0  0  0  0  0  0  0  0
   -0.9996    0.0874   -1.7379 C   0  0  0  0  0  0  0  0  0  0  0  0
   -3.0295    0.6615   -1.4083 H   0  0  0  0  0  0  0  0  0  0  0  0
   -2.8780   -0.7397   -2.4618 H   0  0  0  0  0  0  0  0  0  0  0  0
   -3.6848   -4.2118   -1.2483 H   0  0  0  0  0  0  0  0  0  0  0  0
   -5.4071   -2.9219    0.1145 H   0  0  0  0  0  0  0  0  0  0  0  0
   -5.2393   -2.1058   -1.4657 H   0  0  0  0  0  0  0  0  0  0  0  0
   -3.9992   -0.0064    2.4241 H   0  0  0  0  0  0  0  0  0  0  0  0
   -5.2277    2.0562    2.9992 H   0  0  0  0  0  0  0  0  0  0  0  0
   -6.7060    3.1376    1.3131 H   0  0  0  0  0  0  0  0  0  0  0  0
   -6.9129    2.1347   -0.9560 H   0  0  0  0  0  0  0  0  0  0  0  0
   -5.6537    0.1034   -1.5313 H   0  0  0  0  0  0  0  0  0  0  0  0
   -2.0641   -1.0059    1.7515 H   0  0  0  0  0  0  0  0  0  0  0  0
   -0.7459   -1.4390    0.6756 H   0  0  0  0  0  0  0  0  0  0  0  0
   -0.5464    0.9245    1.4705 H   0  0  0  0  0  0  0  0  0  0  0  0
   -2.1004    1.2899    0.7591 H   0  0  0  0  0  0  0  0  0  0  0  0
    0.9797    2.1088    0.0858 H   0  0  0  0  0  0  0  0  0  0  0  0
    1.1479    1.6088   -1.5824 H   0  0  0  0  0  0  0  0  0  0  0  0
    1.6645   -0.7310   -0.8536 H   0  0  0  0  0  0  0  0  0  0  0  0
    1.4359   -0.2712    0.8317 H   0  0  0  0  0  0  0  0  0  0  0  0
    3.3592    1.6110   -0.3316 H   0  0  0  0  0  0  0  0  0  0  0  0
    6.3233   -0.8204    1.9164 H   0  0  0  0  0  0  0  0  0  0  0  0
    8.6158    0.1073    1.8969 H   0  0  0  0  0  0  0  0  0  0  0  0
    7.6018    2.6214   -1.4174 H   0  0  0  0  0  0  0  0  0  0  0  0
    5.3084    1.6953   -1.4446 H   0  0  0  0  0  0  0  0  0  0  0  0
    3.1415   -2.0631    0.4609 H   0  0  0  0  0  0  0  0  0  0  0  0
    4.1658   -1.6695    1.8405 H   0  0  0  0  0  0  0  0  0  0  0  0
    4.8868   -2.2496    0.3279 H   0  0  0  0  0  0  0  0  0  0  0  0
   -0.4050   -0.8321   -1.7855 H   0  0  0  0  0  0  0  0  0  0  0  0
   -0.8470    0.6236   -2.6799 H   0  0  0  0  0  0  0  0  0  0  0  0
  1 30  1  0  0  0  0
  2  1  1  6  0  0  0
  2  7  1  0  0  0  0
  2 14  1  0  0  0  0
  3  2  1  0  0  0  0
  4  3  2  0  0  0  0
  5  3  1  0  0  0  0
  5  6  1  0  0  0  0
  6 33  1  0  0  0  0
  6  7  1  0  0  0  0
  7  8  1  0  0  0  0
  8  9  2  0  0  0  0
  9 10  1  0  0  0  0
  9 35  1  0  0  0  0
 10 36  1  0  0  0  0
 11 37  1  0  0  0  0
 11 10  2  0  0  0  0
 12 11  1  0  0  0  0
 13 12  2  0  0  0  0
 13  8  1  0  0  0  0
 14 40  1  0  0  0  0
 15 43  1  0  0  0  0
 15 14  1  0  0  0  0
 15 42  1  0  0  0  0
 16 17  1  0  0  0  0
 16 15  1  0  0  0  0
 17 18  1  0  0  0  0
 17 44  1  0  0  0  0
 18 19  1  0  0  0  0
 18 47  1  0  0  0  0
 19 20  2  0  0  0  0
 20 28  1  0  0  0  0
 21 20  1  0  0  0  0
 21 22  2  0  0  0  0
 22 49  1  0  0  0  0
 23 22  1  0  0  0  0
 23 50  1  0  0  0  0
 24 23  2  0  0  0  0
 25 26  2  0  0  0  0
 25 24  1  0  0  0  0
 26 21  1  0  0  0  0
 27 24  1  0  0  0  0
 28 54  1  0  0  0  0
 29  1  1  0  0  0  0
 29 16  1  0  0  0  0
 31  1  1  0  0  0  0
 32  5  1  0  0  0  0
 34  6  1  0  0  0  0
 38 12  1  0  0  0  0
 39 13  1  0  0  0  0
 41 14  1  0  0  0  0
 45 17  1  0  0  0  0
 46 18  1  0  0  0  0
 48 19  1  0  0  0  0
 51 25  1  0  0  0  0
 52 26  1  0  0  0  0
 53 28  1  0  0  0  0
 55 28  1  0  0  0  0
 56 29  1  0  0  0  0
 57 29  1  0  0  0  0
M  END
