57.7473
 OpenBabel10231816213D

 36 36  0  0  1  0  0  0  0  0999 V2000
    3.6115    1.8879   -0.6485 C   0  0  0  0  0  0  0  0  0  0  0  0
    3.6444    0.5806   -1.3854 C   0  0  0  0  0  0  0  0  0  0  0  0
    2.4671    0.9229   -0.5155 C   0  0  0  0  0  0  0  0  0  0  0  0
    2.2642    0.2508    0.7745 N   0  0  0  0  0  0  0  0  0  0  0  0
    1.7877   -1.1375    0.6093 C   0  0  0  0  0  0  0  0  0  0  0  0
    0.5373   -1.4397    1.4783 C   0  0  0  0  0  0  0  0  0  0  0  0
   -0.7699   -0.6843    1.0409 C   0  0  1  0  0  0  0  0  0  0  0  0
   -0.7422    0.7568    1.3792 N   0  0  0  0  0  0  0  0  0  0  0  0
   -1.0826   -0.8881   -0.4544 C   0  0  0  0  0  0  0  0  0  0  0  0
   -2.5430   -0.6365   -0.8518 C   0  0  0  0  0  0  0  0  0  0  0  0
   -2.9526    0.8356   -0.8759 C   0  0  0  0  0  0  0  0  0  0  0  0
   -4.3602    1.0070   -1.4208 C   0  0  0  0  0  0  0  0  0  0  0  0
    0.8248   -1.0847    2.8342 O   0  0  0  0  0  0  0  0  0  0  0  0
    0.3346   -2.8422    1.4920 O   0  0  0  0  0  0  0  0  0  0  0  0
    4.2904    2.0147    0.1864 H   0  0  0  0  0  0  0  0  0  0  0  0
    3.4340    2.7938   -1.2150 H   0  0  0  0  0  0  0  0  0  0  0  0
    4.3396   -0.1797   -1.0517 H   0  0  0  0  0  0  0  0  0  0  0  0
    3.4985    0.6016   -2.4605 H   0  0  0  0  0  0  0  0  0  0  0  0
    1.5493    1.1916   -1.0355 H   0  0  0  0  0  0  0  0  0  0  0  0
    3.1446    0.2224    1.2959 H   0  0  0  0  0  0  0  0  0  0  0  0
    1.5957   -1.3994   -0.4386 H   0  0  0  0  0  0  0  0  0  0  0  0
    2.6027   -1.8047    0.9216 H   0  0  0  0  0  0  0  0  0  0  0  0
   -1.5972   -1.1200    1.6162 H   0  0  0  0  0  0  0  0  0  0  0  0
    0.1653    1.1352    1.0878 H   0  0  0  0  0  0  0  0  0  0  0  0
   -0.7584    0.8458    2.3959 H   0  0  0  0  0  0  0  0  0  0  0  0
   -0.4277   -0.2643   -1.0754 H   0  0  0  0  0  0  0  0  0  0  0  0
   -0.8556   -1.9280   -0.7206 H   0  0  0  0  0  0  0  0  0  0  0  0
   -3.2077   -1.1974   -0.1842 H   0  0  0  0  0  0  0  0  0  0  0  0
   -2.6873   -1.0533   -1.8568 H   0  0  0  0  0  0  0  0  0  0  0  0
   -2.2540    1.4090   -1.4955 H   0  0  0  0  0  0  0  0  0  0  0  0
   -2.9277    1.2611    0.1314 H   0  0  0  0  0  0  0  0  0  0  0  0
   -4.4313    0.6340   -2.4501 H   0  0  0  0  0  0  0  0  0  0  0  0
   -4.6412    2.0640   -1.4261 H   0  0  0  0  0  0  0  0  0  0  0  0
   -5.0873    0.4638   -0.8095 H   0  0  0  0  0  0  0  0  0  0  0  0
    1.2714   -0.2201    2.7506 H   0  0  0  0  0  0  0  0  0  0  0  0
   -0.0375   -2.9990    2.3773 H   0  0  0  0  0  0  0  0  0  0  0  0
  1  3  1  0  0  0  0
  1 15  1  0  0  0  0
  2 17  1  0  0  0  0
  2  1  1  0  0  0  0
  2  3  1  0  0  0  0
  3  4  1  0  0  0  0
  4 20  1  0  0  0  0
  5  4  1  0  0  0  0
  5 22  1  0  0  0  0
  5  6  1  0  0  0  0
  6 14  1  0  0  0  0
  6 13  1  0  0  0  0
  7  8  1  0  0  0  0
  7  6  1  0  0  0  0
  7 23  1  1  0  0  0
  8 25  1  0  0  0  0
  9  7  1  0  0  0  0
 10  9  1  0  0  0  0
 10 28  1  0  0  0  0
 11 10  1  0  0  0  0
 11 31  1  0  0  0  0
 12 11  1  0  0  0  0
 12 34  1  0  0  0  0
 14 36  1  0  0  0  0
 16  1  1  0  0  0  0
 18  2  1  0  0  0  0
 19  3  1  0  0  0  0
 21  5  1  0  0  0  0
 24  8  1  0  0  0  0
 26  9  1  0  0  0  0
 27  9  1  0  0  0  0
 29 10  1  0  0  0  0
 30 11  1  0  0  0  0
 32 12  1  0  0  0  0
 33 12  1  0  0  0  0
 35 13  1  0  0  0  0
M  END
