80.9294
 OpenBabel10231816213D

 44 47  0  0  1  0  0  0  0  0999 V2000
   -0.8218   -5.4185   -0.6302 Cl  0  0  0  0  0  0  0  0  0  0  0  0
   -1.3612   -3.7923   -0.6182 C   0  0  0  0  0  0  0  0  0  0  0  0
   -0.9888   -2.9299    0.3957 C   0  0  0  0  0  0  0  0  0  0  0  0
   -1.3631   -1.6305    0.4451 N   0  0  0  0  0  0  0  0  0  0  0  0
   -2.1682   -1.1552   -0.5343 C   0  0  0  0  0  0  0  0  0  0  0  0
   -2.5252    0.1965   -0.4356 N   0  0  0  0  0  0  0  0  0  0  0  0
   -3.4547    0.8961   -1.1905 C   0  0  0  0  0  0  0  0  0  0  0  0
   -4.1567    0.5038   -2.1048 O   0  0  0  0  0  0  0  0  0  0  0  0
   -3.4853    2.2631   -0.6459 C   0  0  0  0  0  0  0  0  0  0  0  0
   -4.2987    3.2609   -1.0387 N   0  0  0  0  0  0  0  0  0  0  0  0
   -4.1268    4.3961   -0.3152 C   0  0  0  0  0  0  0  0  0  0  0  0
   -3.2065    4.5029    0.7304 C   0  0  0  0  0  0  0  0  0  0  0  0
   -2.3983    3.4818    1.1101 N   0  0  0  0  0  0  0  0  0  0  0  0
   -2.5703    2.3568    0.3824 C   0  0  0  0  0  0  0  0  0  0  0  0
   -1.8550    1.0449    0.5424 C   0  0  2  0  0  0  0  0  0  0  0  0
   -0.5076    1.1832    0.1169 O   0  0  0  0  0  0  0  0  0  0  0  0
    0.4059    1.0519    1.1089 C   0  0  0  0  0  0  0  0  0  0  0  0
    0.1590    1.1801    2.2974 O   0  0  0  0  0  0  0  0  0  0  0  0
    1.6443    0.7229    0.6091 N   0  0  0  0  0  0  0  0  0  0  0  0
    2.7577    0.5323    1.5390 C   0  0  0  0  0  0  0  0  0  0  0  0
    4.0854    0.3670    0.7819 C   0  0  0  0  0  0  0  0  0  0  0  0
    4.0900   -0.7467   -0.1955 N   0  0  0  0  0  0  0  0  0  0  0  0
    2.7274   -1.0796   -0.6678 C   0  0  0  0  0  0  0  0  0  0  0  0
    1.8266    0.1630   -0.7366 C   0  0  0  0  0  0  0  0  0  0  0  0
    4.7492   -1.9324    0.3398 C   0  0  0  0  0  0  0  0  0  0  0  0
   -2.5932   -1.9655   -1.5814 C   0  0  0  0  0  0  0  0  0  0  0  0
   -2.1744   -3.2986   -1.6260 C   0  0  0  0  0  0  0  0  0  0  0  0
   -0.3627   -3.2560    1.2205 H   0  0  0  0  0  0  0  0  0  0  0  0
   -4.7568    5.2348   -0.5936 H   0  0  0  0  0  0  0  0  0  0  0  0
   -3.0983    5.4231    1.2963 H   0  0  0  0  0  0  0  0  0  0  0  0
   -1.9966    0.6365    1.5500 H   0  0  0  0  0  0  0  0  0  0  0  0
    2.5468   -0.3627    2.1388 H   0  0  0  0  0  0  0  0  0  0  0  0
    2.8014    1.3843    2.2257 H   0  0  0  0  0  0  0  0  0  0  0  0
    4.9229    0.2916    1.4849 H   0  0  0  0  0  0  0  0  0  0  0  0
    4.2591    1.2897    0.2116 H   0  0  0  0  0  0  0  0  0  0  0  0
    2.2487   -1.8035    0.0084 H   0  0  0  0  0  0  0  0  0  0  0  0
    2.7900   -1.5504   -1.6546 H   0  0  0  0  0  0  0  0  0  0  0  0
    0.8676   -0.1073   -1.1879 H   0  0  0  0  0  0  0  0  0  0  0  0
    2.2843    0.9377   -1.3627 H   0  0  0  0  0  0  0  0  0  0  0  0
    4.7706   -2.7290   -0.4115 H   0  0  0  0  0  0  0  0  0  0  0  0
    5.7906   -1.7046    0.5899 H   0  0  0  0  0  0  0  0  0  0  0  0
    4.2516   -2.3140    1.2386 H   0  0  0  0  0  0  0  0  0  0  0  0
   -3.2210   -1.5905   -2.3825 H   0  0  0  0  0  0  0  0  0  0  0  0
   -2.4882   -3.9338   -2.4504 H   0  0  0  0  0  0  0  0  0  0  0  0
  1  2  1  0  0  0  0
  2  3  2  0  0  0  0
  3  4  1  0  0  0  0
  3 28  1  0  0  0  0
  5  6  1  0  0  0  0
  5  4  2  0  0  0  0
  6 15  1  0  0  0  0
  7  9  1  0  0  0  0
  7  6  1  0  0  0  0
  8  7  2  0  0  0  0
  9 14  1  0  0  0  0
 10  9  2  0  0  0  0
 10 11  1  0  0  0  0
 11 12  2  0  0  0  0
 12 13  1  0  0  0  0
 12 30  1  0  0  0  0
 14 15  1  0  0  0  0
 14 13  2  0  0  0  0
 15 31  1  1  0  0  0
 16 15  1  0  0  0  0
 16 17  1  0  0  0  0
 17 18  2  0  0  0  0
 19 17  1  0  0  0  0
 19 20  1  0  0  0  0
 20 32  1  0  0  0  0
 20 33  1  0  0  0  0
 21 34  1  0  0  0  0
 21 20  1  0  0  0  0
 22 25  1  0  0  0  0
 22 21  1  0  0  0  0
 23 22  1  0  0  0  0
 23 36  1  0  0  0  0
 24 23  1  0  0  0  0
 24 19  1  0  0  0  0
 25 41  1  0  0  0  0
 25 42  1  0  0  0  0
 26  5  1  0  0  0  0
 27 26  2  0  0  0  0
 27  2  1  0  0  0  0
 29 11  1  0  0  0  0
 35 21  1  0  0  0  0
 37 23  1  0  0  0  0
 38 24  1  0  0  0  0
 39 24  1  0  0  0  0
 40 25  1  0  0  0  0
 43 26  1  0  0  0  0
 44 27  1  0  0  0  0
M  END
