91.9047
 OpenBabel10231816213D

 44 47  0  0  1  0  0  0  0  0999 V2000
   -3.3954   -5.9227   -1.3558 Cl  0  0  0  0  0  0  0  0  0  0  0  0
   -3.1126   -4.2426   -1.1683 C   0  0  0  0  0  0  0  0  0  0  0  0
   -3.9003   -3.3069   -1.8187 C   0  0  0  0  0  0  0  0  0  0  0  0
   -3.7242   -1.9671   -1.7064 N   0  0  0  0  0  0  0  0  0  0  0  0
   -2.7378   -1.5135   -0.9080 C   0  0  0  0  0  0  0  0  0  0  0  0
   -2.6084   -0.1257   -0.7287 N   0  0  0  0  0  0  0  0  0  0  0  0
   -3.2337    0.8591   -1.4975 C   0  0  0  0  0  0  0  0  0  0  0  0
   -3.8159    0.7731   -2.5637 O   0  0  0  0  0  0  0  0  0  0  0  0
   -3.0575    2.1300   -0.7700 C   0  0  0  0  0  0  0  0  0  0  0  0
   -3.5495    3.3387   -1.1009 N   0  0  0  0  0  0  0  0  0  0  0  0
   -3.2544    4.3021   -0.1892 C   0  0  0  0  0  0  0  0  0  0  0  0
   -2.5171    4.0598    0.9698 C   0  0  0  0  0  0  0  0  0  0  0  0
   -2.0225    2.8348    1.2797 N   0  0  0  0  0  0  0  0  0  0  0  0
   -2.3266    1.8842    0.3694 C   0  0  0  0  0  0  0  0  0  0  0  0
   -1.8935    0.4482    0.3912 C   0  0  2  0  0  0  0  0  0  0  0  0
   -0.5075    0.4000    0.0923 O   0  0  0  0  0  0  0  0  0  0  0  0
    0.2961    0.5347    1.1709 C   0  0  0  0  0  0  0  0  0  0  0  0
   -0.1012    0.5226    2.3254 O   0  0  0  0  0  0  0  0  0  0  0  0
    1.6078    0.6632    0.7945 N   0  0  0  0  0  0  0  0  0  0  0  0
    2.0410    0.5615   -0.6024 C   0  0  0  0  0  0  0  0  0  0  0  0
    3.5615    0.3812   -0.7337 C   0  0  0  0  0  0  0  0  0  0  0  0
    4.0026   -0.6462    0.2195 N   0  0  0  0  0  0  0  0  0  0  0  0
    3.7763   -0.2178    1.6174 C   0  0  0  0  0  0  0  0  0  0  0  0
    2.6542    0.8295    1.7920 C   0  0  0  0  0  0  0  0  0  0  0  0
    5.3744   -1.0641   -0.0115 C   0  0  0  0  0  0  0  0  0  0  0  0
   -1.9073   -2.4019   -0.2180 C   0  0  0  0  0  0  0  0  0  0  0  0
   -2.0945   -3.7794   -0.3568 C   0  0  0  0  0  0  0  0  0  0  0  0
   -4.7229   -3.6041   -2.4630 H   0  0  0  0  0  0  0  0  0  0  0  0
   -3.6339    5.2938   -0.4104 H   0  0  0  0  0  0  0  0  0  0  0  0
   -2.3027    4.8467    1.6856 H   0  0  0  0  0  0  0  0  0  0  0  0
   -2.1872   -0.0543    1.3214 H   0  0  0  0  0  0  0  0  0  0  0  0
    1.7091    1.4605   -1.1337 H   0  0  0  0  0  0  0  0  0  0  0  0
    1.5329   -0.2994   -1.0551 H   0  0  0  0  0  0  0  0  0  0  0  0
    4.0764    1.3319   -0.5428 H   0  0  0  0  0  0  0  0  0  0  0  0
    3.7877    0.0893   -1.7652 H   0  0  0  0  0  0  0  0  0  0  0  0
    4.6883    0.1971    2.0646 H   0  0  0  0  0  0  0  0  0  0  0  0
    3.5138   -1.1116    2.1965 H   0  0  0  0  0  0  0  0  0  0  0  0
    3.0620    1.8380    1.6484 H   0  0  0  0  0  0  0  0  0  0  0  0
    2.2494    0.7868    2.8082 H   0  0  0  0  0  0  0  0  0  0  0  0
    6.0834   -0.2411    0.1241 H   0  0  0  0  0  0  0  0  0  0  0  0
    5.4864   -1.4543   -1.0286 H   0  0  0  0  0  0  0  0  0  0  0  0
    5.6446   -1.8781    0.6703 H   0  0  0  0  0  0  0  0  0  0  0  0
   -1.0966   -2.0648    0.4167 H   0  0  0  0  0  0  0  0  0  0  0  0
   -1.4446   -4.4712    0.1710 H   0  0  0  0  0  0  0  0  0  0  0  0
  1  2  1  0  0  0  0
  2 27  2  0  0  0  0
  3  4  2  0  0  0  0
  3  2  1  0  0  0  0
  4  5  1  0  0  0  0
  5  6  1  0  0  0  0
  5 26  2  0  0  0  0
  6 15  1  0  0  0  0
  7  9  1  0  0  0  0
  7  6  1  0  0  0  0
  8  7  2  0  0  0  0
  9 14  1  0  0  0  0
 10  9  2  0  0  0  0
 10 11  1  0  0  0  0
 11 12  2  0  0  0  0
 12 13  1  0  0  0  0
 12 30  1  0  0  0  0
 14 15  1  0  0  0  0
 14 13  2  0  0  0  0
 15 31  1  1  0  0  0
 16 15  1  0  0  0  0
 16 17  1  0  0  0  0
 17 18  2  0  0  0  0
 19 17  1  0  0  0  0
 19 24  1  0  0  0  0
 20 19  1  0  0  0  0
 21 20  1  0  0  0  0
 21 34  1  0  0  0  0
 21 22  1  0  0  0  0
 22 23  1  0  0  0  0
 23 24  1  0  0  0  0
 23 36  1  0  0  0  0
 23 37  1  0  0  0  0
 24 39  1  0  0  0  0
 25 40  1  0  0  0  0
 25 22  1  0  0  0  0
 25 42  1  0  0  0  0
 26 43  1  0  0  0  0
 27 26  1  0  0  0  0
 27 44  1  0  0  0  0
 28  3  1  0  0  0  0
 29 11  1  0  0  0  0
 32 20  1  0  0  0  0
 33 20  1  0  0  0  0
 35 21  1  0  0  0  0
 38 24  1  0  0  0  0
 41 25  1  0  0  0  0
M  END
