4.96698
 OpenBabel10231816213D

 66 68  0  0  1  0  0  0  0  0999 V2000
    1.0351   -1.5095    1.6055 C   0  0  2  0  0  0  0  0  0  0  0  0
    0.2737   -2.8423    1.8385 C   0  0  0  0  0  0  0  0  0  0  0  0
   -1.0692   -2.9645    1.1561 C   0  0  0  0  0  0  0  0  0  0  0  0
   -1.1526   -3.2097   -0.2204 C   0  0  0  0  0  0  0  0  0  0  0  0
   -2.3793   -3.1819   -0.8882 C   0  0  0  0  0  0  0  0  0  0  0  0
   -3.5476   -2.9226   -0.1855 C   0  0  0  0  0  0  0  0  0  0  0  0
   -3.4894   -2.7625    1.1986 C   0  0  0  0  0  0  0  0  0  0  0  0
   -2.2597   -2.7771    1.8658 C   0  0  0  0  0  0  0  0  0  0  0  0
   -4.7899   -2.8449   -0.7370 O   0  0  0  0  0  0  0  0  0  0  0  0
   -4.9146   -2.2079   -2.0067 C   0  0  0  0  0  0  0  0  0  0  0  0
   -4.9914   -0.6730   -1.9421 C   0  0  0  0  0  0  0  0  0  0  0  0
   -3.7776    0.0301   -1.3113 C   0  0  0  0  0  0  0  0  0  0  0  0
   -3.9364    0.2370    0.1838 C   0  0  0  0  0  0  0  0  0  0  0  0
   -5.0320    0.1395    0.7590 O   0  0  0  0  0  0  0  0  0  0  0  0
   -2.8586    0.6338    0.9205 N   0  0  0  0  0  0  0  0  0  0  0  0
   -1.4274    0.3730    0.6510 C   0  0  2  0  0  0  0  0  0  0  0  0
   -0.7344    0.3256    2.0227 C   0  0  0  0  0  0  0  0  0  0  0  0
   -1.1969    1.0072    2.9615 O   0  0  0  0  0  0  0  0  0  0  0  0
    0.4169   -0.3474    2.2621 N   0  0  0  0  0  0  0  0  0  0  0  0
   -0.8330    1.4506   -0.2429 C   0  0  0  0  0  0  0  0  0  0  0  0
   -0.4558    2.6974    0.5272 C   0  0  0  0  0  0  0  0  0  0  0  0
    0.6937    3.0210    0.7866 O   0  0  0  0  0  0  0  0  0  0  0  0
   -1.5207    3.4279    0.9634 N   0  0  0  0  0  0  0  0  0  0  0  0
    1.4445   -1.2784    0.1492 C   0  0  2  0  0  0  0  0  0  0  0  0
    2.0815   -2.4784   -0.3166 O   0  0  0  0  0  0  0  0  0  0  0  0
    2.4275   -0.1057    0.0227 C   0  0  0  0  0  0  0  0  0  0  0  0
    2.9638   -0.0660   -1.3501 N   0  0  0  0  0  0  0  0  0  0  0  0
    3.1908    1.4256   -2.1072 S   0  0  0  0  0  0  0  0  0  0  0  0
    3.8091    1.0918   -3.3775 O   0  0  0  0  0  0  0  0  0  0  0  0
    1.9481    2.1421   -2.0403 O   0  0  0  0  0  0  0  0  0  0  0  0
    4.4119    2.2436   -1.1141 C   0  0  0  0  0  0  0  0  0  0  0  0
    5.7422    2.2378   -1.5366 C   0  0  0  0  0  0  0  0  0  0  0  0
    6.7186    2.8883   -0.7802 C   0  0  0  0  0  0  0  0  0  0  0  0
    6.3626    3.5579    0.3902 C   0  0  0  0  0  0  0  0  0  0  0  0
    5.0290    3.5827    0.8007 C   0  0  0  0  0  0  0  0  0  0  0  0
    4.0497    2.9336    0.0426 C   0  0  0  0  0  0  0  0  0  0  0  0
    1.9837   -1.6521    2.1540 H   0  0  0  0  0  0  0  0  0  0  0  0
    0.9110   -3.6742    1.5036 H   0  0  0  0  0  0  0  0  0  0  0  0
    0.1482   -2.9827    2.9212 H   0  0  0  0  0  0  0  0  0  0  0  0
   -0.2478   -3.3888   -0.7936 H   0  0  0  0  0  0  0  0  0  0  0  0
   -2.4007   -3.3745   -1.9536 H   0  0  0  0  0  0  0  0  0  0  0  0
   -4.4114   -2.5782    1.7506 H   0  0  0  0  0  0  0  0  0  0  0  0
   -2.2313   -2.6122    2.9393 H   0  0  0  0  0  0  0  0  0  0  0  0
   -5.8656   -2.5782   -2.4184 H   0  0  0  0  0  0  0  0  0  0  0  0
   -4.1387   -2.5118   -2.7159 H   0  0  0  0  0  0  0  0  0  0  0  0
   -5.9034   -0.3725   -1.4115 H   0  0  0  0  0  0  0  0  0  0  0  0
   -5.1017   -0.3249   -2.9770 H   0  0  0  0  0  0  0  0  0  0  0  0
   -2.8515   -0.4944   -1.5503 H   0  0  0  0  0  0  0  0  0  0  0  0
   -3.6936    1.0324   -1.7502 H   0  0  0  0  0  0  0  0  0  0  0  0
   -3.0777    0.7532    1.9111 H   0  0  0  0  0  0  0  0  0  0  0  0
   -1.3637   -0.5926    0.1661 H   0  0  0  0  0  0  0  0  0  0  0  0
    0.7602   -0.1722    3.1961 H   0  0  0  0  0  0  0  0  0  0  0  0
    0.0656    1.0949   -0.7441 H   0  0  0  0  0  0  0  0  0  0  0  0
   -1.5397    1.7180   -1.0317 H   0  0  0  0  0  0  0  0  0  0  0  0
   -2.4429    3.0072    0.9745 H   0  0  0  0  0  0  0  0  0  0  0  0
   -1.3299    4.1667    1.6291 H   0  0  0  0  0  0  0  0  0  0  0  0
    0.5733   -1.0941   -0.4793 H   0  0  0  0  0  0  0  0  0  0  0  0
    2.2709   -2.3240   -1.2588 H   0  0  0  0  0  0  0  0  0  0  0  0
    3.2665   -0.2608    0.7045 H   0  0  0  0  0  0  0  0  0  0  0  0
    1.9354    0.8269    0.2845 H   0  0  0  0  0  0  0  0  0  0  0  0
    3.7939   -0.6328   -1.4908 H   0  0  0  0  0  0  0  0  0  0  0  0
    6.0197    1.7265   -2.4561 H   0  0  0  0  0  0  0  0  0  0  0  0
    7.7551    2.8721   -1.1079 H   0  0  0  0  0  0  0  0  0  0  0  0
    7.1221    4.0663    0.9807 H   0  0  0  0  0  0  0  0  0  0  0  0
    4.7454    4.1105    1.7088 H   0  0  0  0  0  0  0  0  0  0  0  0
    3.0163    2.9711    0.3642 H   0  0  0  0  0  0  0  0  0  0  0  0
  1  2  1  0  0  0  0
  1 37  1  1  0  0  0
  1 19  1  0  0  0  0
  2 39  1  0  0  0  0
  3  2  1  0  0  0  0
  3  8  2  0  0  0  0
  4  3  1  0  0  0  0
  5  4  2  0  0  0  0
  5  6  1  0  0  0  0
  6  7  2  0  0  0  0
  7 42  1  0  0  0  0
  7  8  1  0  0  0  0
  8 43  1  0  0  0  0
  9  6  1  0  0  0  0
 10 11  1  0  0  0  0
 10  9  1  0  0  0  0
 11 46  1  0  0  0  0
 11 12  1  0  0  0  0
 12 13  1  0  0  0  0
 13 14  2  0  0  0  0
 13 15  1  0  0  0  0
 15 50  1  0  0  0  0
 16 51  1  6  0  0  0
 16 15  1  0  0  0  0
 16 17  1  0  0  0  0
 17 19  1  0  0  0  0
 17 18  2  0  0  0  0
 19 52  1  0  0  0  0
 20 21  1  0  0  0  0
 20 16  1  0  0  0  0
 21 22  2  0  0  0  0
 21 23  1  0  0  0  0
 23 55  1  0  0  0  0
 23 56  1  0  0  0  0
 24 57  1  6  0  0  0
 24  1  1  0  0  0  0
 25 24  1  0  0  0  0
 26 24  1  0  0  0  0
 26 60  1  0  0  0  0
 26 59  1  0  0  0  0
 27 26  1  0  0  0  0
 28 30  2  0  0  0  0
 28 27  1  0  0  0  0
 28 31  1  0  0  0  0
 29 28  2  0  0  0  0
 31 36  1  0  0  0  0
 32 31  2  0  0  0  0
 32 33  1  0  0  0  0
 33 34  2  0  0  0  0
 34 35  1  0  0  0  0
 34 64  1  0  0  0  0
 35 65  1  0  0  0  0
 36 66  1  0  0  0  0
 36 35  2  0  0  0  0
 38  2  1  0  0  0  0
 40  4  1  0  0  0  0
 41  5  1  0  0  0  0
 44 10  1  0  0  0  0
 45 10  1  0  0  0  0
 47 11  1  0  0  0  0
 48 12  1  0  0  0  0
 49 12  1  0  0  0  0
 53 20  1  0  0  0  0
 54 20  1  0  0  0  0
 58 25  1  0  0  0  0
 61 27  1  0  0  0  0
 62 32  1  0  0  0  0
 63 33  1  0  0  0  0
M  END
