-9.09803
 OpenBabel10231816213D

 66 68  0  0  1  0  0  0  0  0999 V2000
    0.5752    0.2970    0.1200 C   0  0  2  0  0  0  0  0  0  0  0  0
    0.7809   -0.8070   -0.9460 C   0  0  0  0  0  0  0  0  0  0  0  0
   -0.3070   -1.8659   -0.9289 C   0  0  0  0  0  0  0  0  0  0  0  0
   -0.6450   -2.5365    0.2524 C   0  0  0  0  0  0  0  0  0  0  0  0
   -1.8056   -3.3116    0.3240 C   0  0  0  0  0  0  0  0  0  0  0  0
   -2.6153   -3.4484   -0.7960 C   0  0  0  0  0  0  0  0  0  0  0  0
   -2.2070   -2.9218   -2.0182 C   0  0  0  0  0  0  0  0  0  0  0  0
   -1.0623   -2.1207   -2.0802 C   0  0  0  0  0  0  0  0  0  0  0  0
   -3.8450   -4.0488   -0.7398 O   0  0  0  0  0  0  0  0  0  0  0  0
   -4.7746   -3.3282    0.0975 C   0  0  0  0  0  0  0  0  0  0  0  0
   -5.0306   -1.8990   -0.4129 C   0  0  0  0  0  0  0  0  0  0  0  0
   -5.6642   -0.9843    0.6310 C   0  0  0  0  0  0  0  0  0  0  0  0
   -4.8690   -0.9508    1.9183 C   0  0  0  0  0  0  0  0  0  0  0  0
   -5.1625   -1.7188    2.8533 O   0  0  0  0  0  0  0  0  0  0  0  0
   -3.8011   -0.1315    2.0574 N   0  0  0  0  0  0  0  0  0  0  0  0
   -3.1222    0.7296    1.0708 C   0  0  2  0  0  0  0  0  0  0  0  0
   -1.6268    0.4256    1.2353 C   0  0  0  0  0  0  0  0  0  0  0  0
   -1.1746   -0.0576    2.2891 O   0  0  0  0  0  0  0  0  0  0  0  0
   -0.8212    0.7327    0.1782 N   0  0  0  0  0  0  0  0  0  0  0  0
   -3.4358    2.1872    1.3636 C   0  0  0  0  0  0  0  0  0  0  0  0
   -2.9690    3.0993    0.2477 C   0  0  0  0  0  0  0  0  0  0  0  0
   -2.5453    2.7110   -0.8291 O   0  0  0  0  0  0  0  0  0  0  0  0
   -3.0762    4.4344    0.5270 N   0  0  0  0  0  0  0  0  0  0  0  0
    1.4590    1.5399   -0.0928 C   0  0  2  0  0  0  0  0  0  0  0  0
    1.0876    2.2462   -1.2889 O   0  0  0  0  0  0  0  0  0  0  0  0
    2.9631    1.2200   -0.0842 C   0  0  0  0  0  0  0  0  0  0  0  0
    3.4528    0.8714   -1.4350 N   0  0  0  0  0  0  0  0  0  0  0  0
    4.6688   -0.3021   -1.5504 S   0  0  0  0  0  0  0  0  0  0  0  0
    5.0130   -0.3593   -2.9527 O   0  0  0  0  0  0  0  0  0  0  0  0
    4.2256   -1.4617   -0.8115 O   0  0  0  0  0  0  0  0  0  0  0  0
    6.0243    0.4306   -0.6644 C   0  0  0  0  0  0  0  0  0  0  0  0
    6.3818   -0.0849    0.5825 C   0  0  0  0  0  0  0  0  0  0  0  0
    7.4242    0.4993    1.3055 C   0  0  0  0  0  0  0  0  0  0  0  0
    8.1115    1.5907    0.7741 C   0  0  0  0  0  0  0  0  0  0  0  0
    7.7639    2.0912   -0.4835 C   0  0  0  0  0  0  0  0  0  0  0  0
    6.7233    1.5063   -1.2109 C   0  0  0  0  0  0  0  0  0  0  0  0
    0.8226   -0.1277    1.1000 H   0  0  0  0  0  0  0  0  0  0  0  0
    0.8051   -0.3445   -1.9402 H   0  0  0  0  0  0  0  0  0  0  0  0
    1.7528   -1.2862   -0.7949 H   0  0  0  0  0  0  0  0  0  0  0  0
   -0.0429   -2.4013    1.1480 H   0  0  0  0  0  0  0  0  0  0  0  0
   -2.0918   -3.7768    1.2599 H   0  0  0  0  0  0  0  0  0  0  0  0
   -2.8211   -3.0716   -2.9019 H   0  0  0  0  0  0  0  0  0  0  0  0
   -0.7833   -1.6610   -3.0252 H   0  0  0  0  0  0  0  0  0  0  0  0
   -5.7090   -3.9067    0.0803 H   0  0  0  0  0  0  0  0  0  0  0  0
   -4.4248   -3.3275    1.1330 H   0  0  0  0  0  0  0  0  0  0  0  0
   -4.0880   -1.4595   -0.7392 H   0  0  0  0  0  0  0  0  0  0  0  0
   -5.6596   -1.9398   -1.3118 H   0  0  0  0  0  0  0  0  0  0  0  0
   -5.7817    0.0303    0.2283 H   0  0  0  0  0  0  0  0  0  0  0  0
   -6.6717   -1.3465    0.8777 H   0  0  0  0  0  0  0  0  0  0  0  0
   -3.2454   -0.3217    2.8934 H   0  0  0  0  0  0  0  0  0  0  0  0
   -3.4418    0.4604    0.0641 H   0  0  0  0  0  0  0  0  0  0  0  0
   -1.1613    1.3383   -0.5749 H   0  0  0  0  0  0  0  0  0  0  0  0
   -4.5224    2.3009    1.4479 H   0  0  0  0  0  0  0  0  0  0  0  0
   -2.9978    2.4990    2.3171 H   0  0  0  0  0  0  0  0  0  0  0  0
   -3.5272    4.7768    1.3636 H   0  0  0  0  0  0  0  0  0  0  0  0
   -2.8540    5.1007   -0.2065 H   0  0  0  0  0  0  0  0  0  0  0  0
    1.2383    2.2269    0.7338 H   0  0  0  0  0  0  0  0  0  0  0  0
    1.4800    1.7462   -2.0277 H   0  0  0  0  0  0  0  0  0  0  0  0
    3.5147    2.1044    0.2491 H   0  0  0  0  0  0  0  0  0  0  0  0
    3.1553    0.4048    0.6132 H   0  0  0  0  0  0  0  0  0  0  0  0
    3.7254    1.6700   -2.0077 H   0  0  0  0  0  0  0  0  0  0  0  0
    5.8445   -0.9369    0.9928 H   0  0  0  0  0  0  0  0  0  0  0  0
    7.6947    0.1019    2.2814 H   0  0  0  0  0  0  0  0  0  0  0  0
    8.9238    2.0484    1.3368 H   0  0  0  0  0  0  0  0  0  0  0  0
    8.3066    2.9371   -0.8991 H   0  0  0  0  0  0  0  0  0  0  0  0
    6.4653    1.8881   -2.1934 H   0  0  0  0  0  0  0  0  0  0  0  0
  1 19  1  0  0  0  0
  1 37  1  1  0  0  0
  2  3  1  0  0  0  0
  2 39  1  0  0  0  0
  2  1  1  0  0  0  0
  3  4  2  0  0  0  0
  4  5  1  0  0  0  0
  4 40  1  0  0  0  0
  5 41  1  0  0  0  0
  6  9  1  0  0  0  0
  6  5  2  0  0  0  0
  7  6  1  0  0  0  0
  8  7  2  0  0  0  0
  8  3  1  0  0  0  0
  9 10  1  0  0  0  0
 10 45  1  0  0  0  0
 11 10  1  0  0  0  0
 11 12  1  0  0  0  0
 12 49  1  0  0  0  0
 12 13  1  0  0  0  0
 13 15  1  0  0  0  0
 13 14  2  0  0  0  0
 15 50  1  0  0  0  0
 16 51  1  6  0  0  0
 16 17  1  0  0  0  0
 16 20  1  0  0  0  0
 16 15  1  0  0  0  0
 17 18  2  0  0  0  0
 19 17  1  0  0  0  0
 20 53  1  0  0  0  0
 20 54  1  0  0  0  0
 21 23  1  0  0  0  0
 21 20  1  0  0  0  0
 22 21  2  0  0  0  0
 23 55  1  0  0  0  0
 24 26  1  0  0  0  0
 24  1  1  0  0  0  0
 24 57  1  1  0  0  0
 25 24  1  0  0  0  0
 26 59  1  0  0  0  0
 26 60  1  0  0  0  0
 27 26  1  0  0  0  0
 28 27  1  0  0  0  0
 28 30  2  0  0  0  0
 28 31  1  0  0  0  0
 29 28  2  0  0  0  0
 31 32  1  0  0  0  0
 32 62  1  0  0  0  0
 32 33  2  0  0  0  0
 33 63  1  0  0  0  0
 34 33  1  0  0  0  0
 34 64  1  0  0  0  0
 35 34  2  0  0  0  0
 36 31  2  0  0  0  0
 36 35  1  0  0  0  0
 38  2  1  0  0  0  0
 42  7  1  0  0  0  0
 43  8  1  0  0  0  0
 44 10  1  0  0  0  0
 46 11  1  0  0  0  0
 47 11  1  0  0  0  0
 48 12  1  0  0  0  0
 52 19  1  0  0  0  0
 56 23  1  0  0  0  0
 58 25  1  0  0  0  0
 61 27  1  0  0  0  0
 65 35  1  0  0  0  0
 66 36  1  0  0  0  0
M  END
