39.0134
 OpenBabel10231816213D

 61 65  0  0  0  0  0  0  0  0999 V2000
    9.6247    0.9649   -0.6633 N   0  0  0  0  0  0  0  0  0  0  0  0
    9.0562    0.1375   -1.5593 C   0  0  0  0  0  0  0  0  0  0  0  0
    7.7177   -0.2318   -1.5296 C   0  0  0  0  0  0  0  0  0  0  0  0
    6.8761    0.2741   -0.5321 C   0  0  0  0  0  0  0  0  0  0  0  0
    7.4714    1.1189    0.4124 C   0  0  0  0  0  0  0  0  0  0  0  0
    8.8217    1.4315    0.3079 C   0  0  0  0  0  0  0  0  0  0  0  0
    5.5245   -0.1129   -0.4750 N   0  0  0  0  0  0  0  0  0  0  0  0
    4.7758    0.2165    0.7463 C   0  0  0  0  0  0  0  0  0  0  0  0
    3.4843   -0.5907    0.8110 C   0  0  0  0  0  0  0  0  0  0  0  0
    2.6468   -0.3737   -0.4483 C   0  0  0  0  0  0  0  0  0  0  0  0
    3.4780   -0.7356   -1.6825 C   0  0  0  0  0  0  0  0  0  0  0  0
    4.7687    0.0740   -1.7282 C   0  0  0  0  0  0  0  0  0  0  0  0
    1.4026   -1.2446   -0.3963 C   0  0  0  0  0  0  0  0  0  0  0  0
    1.4226   -2.4022   -0.8180 O   0  0  0  0  0  0  0  0  0  0  0  0
    0.2582   -0.7002    0.1507 N   0  0  0  0  0  0  0  0  0  0  0  0
   -0.9805   -1.4784    0.0474 C   0  0  0  0  0  0  0  0  0  0  0  0
   -2.1908   -0.5563   -0.0730 C   0  0  0  0  0  0  0  0  0  0  0  0
   -2.3390    0.3110    1.1447 N   0  0  0  0  0  0  0  0  0  0  0  0
   -1.0228    0.6967    1.7610 C   0  0  0  0  0  0  0  0  0  0  0  0
    0.1280    0.6363    0.7494 C   0  0  0  0  0  0  0  0  0  0  0  0
   -3.4315   -0.2905    2.3153 S   0  0  0  0  0  0  0  0  0  0  0  0
   -3.5444    0.6941    3.3681 O   0  0  0  0  0  0  0  0  0  0  0  0
   -3.0442   -1.6561    2.5908 O   0  0  0  0  0  0  0  0  0  0  0  0
   -4.9628   -0.3070    1.4310 C   0  0  0  0  0  0  0  0  0  0  0  0
   -5.3655    0.8354    0.7319 C   0  0  0  0  0  0  0  0  0  0  0  0
   -6.5536    0.8141   -0.0100 C   0  0  0  0  0  0  0  0  0  0  0  0
   -7.3300   -0.3721   -0.0403 C   0  0  0  0  0  0  0  0  0  0  0  0
   -6.8927   -1.5102    0.6561 C   0  0  0  0  0  0  0  0  0  0  0  0
   -5.7096   -1.4829    1.3880 C   0  0  0  0  0  0  0  0  0  0  0  0
   -8.5273   -0.3921   -0.7688 C   0  0  0  0  0  0  0  0  0  0  0  0
   -8.9494    0.7430   -1.4599 C   0  0  0  0  0  0  0  0  0  0  0  0
   -8.1869    1.9070   -1.4435 C   0  0  0  0  0  0  0  0  0  0  0  0
   -6.9909    1.9418   -0.7229 C   0  0  0  0  0  0  0  0  0  0  0  0
  -10.4285    0.7032   -2.3385 Cl  0  0  0  0  0  0  0  0  0  0  0  0
    9.7216   -0.2477   -2.3251 H   0  0  0  0  0  0  0  0  0  0  0  0
    7.3567   -0.9409   -2.2656 H   0  0  0  0  0  0  0  0  0  0  0  0
    6.9160    1.5561    1.2299 H   0  0  0  0  0  0  0  0  0  0  0  0
    9.2990    2.0853    1.0321 H   0  0  0  0  0  0  0  0  0  0  0  0
    4.5472    1.2898    0.7721 H   0  0  0  0  0  0  0  0  0  0  0  0
    5.3585   -0.0348    1.6408 H   0  0  0  0  0  0  0  0  0  0  0  0
    3.7276   -1.6569    0.9119 H   0  0  0  0  0  0  0  0  0  0  0  0
    2.9246   -0.3173    1.7123 H   0  0  0  0  0  0  0  0  0  0  0  0
    2.3603    0.6806   -0.5391 H   0  0  0  0  0  0  0  0  0  0  0  0
    3.7239   -1.8056   -1.6736 H   0  0  0  0  0  0  0  0  0  0  0  0
    2.8911   -0.5563   -2.5919 H   0  0  0  0  0  0  0  0  0  0  0  0
    4.5386    1.1385   -1.8649 H   0  0  0  0  0  0  0  0  0  0  0  0
    5.3262   -0.2537   -2.6115 H   0  0  0  0  0  0  0  0  0  0  0  0
   -1.0450   -2.1018    0.9456 H   0  0  0  0  0  0  0  0  0  0  0  0
   -0.9413   -2.1469   -0.8191 H   0  0  0  0  0  0  0  0  0  0  0  0
   -3.0930   -1.1420   -0.2664 H   0  0  0  0  0  0  0  0  0  0  0  0
   -2.0752    0.1130   -0.9363 H   0  0  0  0  0  0  0  0  0  0  0  0
   -0.7856    0.0176    2.5894 H   0  0  0  0  0  0  0  0  0  0  0  0
   -1.1122    1.7113    2.1633 H   0  0  0  0  0  0  0  0  0  0  0  0
   -0.0511    1.3406   -0.0722 H   0  0  0  0  0  0  0  0  0  0  0  0
    1.0596    0.9259    1.2401 H   0  0  0  0  0  0  0  0  0  0  0  0
   -4.7465    1.7310    0.7611 H   0  0  0  0  0  0  0  0  0  0  0  0
   -7.4707   -2.4319    0.6321 H   0  0  0  0  0  0  0  0  0  0  0  0
   -5.3745   -2.3760    1.9113 H   0  0  0  0  0  0  0  0  0  0  0  0
   -9.1364   -1.2917   -0.7965 H   0  0  0  0  0  0  0  0  0  0  0  0
   -8.5188    2.7902   -1.9830 H   0  0  0  0  0  0  0  0  0  0  0  0
   -6.4076    2.8607   -0.7195 H   0  0  0  0  0  0  0  0  0  0  0  0
  1  6  2  0  0  0  0
  2  3  2  0  0  0  0
  2  1  1  0  0  0  0
  3  4  1  0  0  0  0
  4  7  1  0  0  0  0
  4  5  2  0  0  0  0
  5 37  1  0  0  0  0
  6  5  1  0  0  0  0
  6 38  1  0  0  0  0
  7  8  1  0  0  0  0
  8 39  1  0  0  0  0
  8  9  1  0  0  0  0
  8 40  1  0  0  0  0
  9 41  1  0  0  0  0
  9 42  1  0  0  0  0
 10 13  1  0  0  0  0
 10  9  1  0  0  0  0
 11 44  1  0  0  0  0
 11 10  1  0  0  0  0
 12 11  1  0  0  0  0
 12  7  1  0  0  0  0
 13 15  1  0  0  0  0
 14 13  2  0  0  0  0
 15 20  1  0  0  0  0
 16 15  1  0  0  0  0
 16 48  1  0  0  0  0
 17 16  1  0  0  0  0
 17 18  1  0  0  0  0
 18 19  1  0  0  0  0
 18 21  1  0  0  0  0
 19 53  1  0  0  0  0
 19 52  1  0  0  0  0
 20 55  1  0  0  0  0
 20 19  1  0  0  0  0
 21 23  2  0  0  0  0
 21 22  2  0  0  0  0
 24 21  1  0  0  0  0
 25 56  1  0  0  0  0
 25 24  2  0  0  0  0
 26 25  1  0  0  0  0
 27 26  1  0  0  0  0
 27 28  1  0  0  0  0
 28 29  2  0  0  0  0
 29 24  1  0  0  0  0
 29 58  1  0  0  0  0
 30 27  2  0  0  0  0
 31 32  2  0  0  0  0
 31 30  1  0  0  0  0
 32 33  1  0  0  0  0
 33 61  1  0  0  0  0
 33 26  2  0  0  0  0
 34 31  1  0  0  0  0
 35  2  1  0  0  0  0
 36  3  1  0  0  0  0
 43 10  1  0  0  0  0
 45 11  1  0  0  0  0
 46 12  1  0  0  0  0
 47 12  1  0  0  0  0
 49 16  1  0  0  0  0
 50 17  1  0  0  0  0
 51 17  1  0  0  0  0
 54 20  1  0  0  0  0
 57 28  1  0  0  0  0
 59 30  1  0  0  0  0
 60 32  1  0  0  0  0
M  END
