-44.1884
 OpenBabel10231816213D

 24 23  0  0  1  0  0  0  0  0999 V2000
   -0.2069   -1.0084   -0.1646 C   0  0  2  0  0  0  0  0  0  0  0  0
   -0.5970   -1.2549    1.2990 C   0  0  0  0  0  0  0  0  0  0  0  0
    0.1961   -1.4962    2.2031 O   0  0  0  0  0  0  0  0  0  0  0  0
   -1.9393   -1.2209    1.5217 O   0  0  0  0  0  0  0  0  0  0  0  0
    1.2868   -1.2731   -0.4124 C   0  0  0  0  0  0  0  0  0  0  0  0
    2.2277   -0.0895   -0.1768 C   0  0  0  0  0  0  0  0  0  0  0  0
    2.0328    0.5706    1.1578 C   0  0  0  0  0  0  0  0  0  0  0  0
    1.2418    1.4871    1.3646 O   0  0  0  0  0  0  0  0  0  0  0  0
    2.7540    0.0074    2.1332 O   0  0  0  0  0  0  0  0  0  0  0  0
   -0.6271    0.3176   -0.6078 N   0  0  0  0  0  0  0  0  0  0  0  0
   -1.9165    0.5180   -1.0237 C   0  0  0  0  0  0  0  0  0  0  0  0
   -2.7476   -0.3842   -0.9806 O   0  0  0  0  0  0  0  0  0  0  0  0
   -2.2299    1.8949   -1.5348 C   0  0  0  0  0  0  0  0  0  0  0  0
   -0.7614   -1.7532   -0.7521 H   0  0  0  0  0  0  0  0  0  0  0  0
   -2.4365   -1.0649    0.6916 H   0  0  0  0  0  0  0  0  0  0  0  0
    1.4104   -1.5905   -1.4567 H   0  0  0  0  0  0  0  0  0  0  0  0
    1.6090   -2.1223    0.2009 H   0  0  0  0  0  0  0  0  0  0  0  0
    2.0800    0.6728   -0.9505 H   0  0  0  0  0  0  0  0  0  0  0  0
    3.2707   -0.4085   -0.2638 H   0  0  0  0  0  0  0  0  0  0  0  0
    2.4284    0.3925    2.9730 H   0  0  0  0  0  0  0  0  0  0  0  0
   -0.1267    1.1179   -0.2191 H   0  0  0  0  0  0  0  0  0  0  0  0
   -3.1760    2.2286   -1.1025 H   0  0  0  0  0  0  0  0  0  0  0  0
   -1.4453    2.6111   -1.2775 H   0  0  0  0  0  0  0  0  0  0  0  0
   -2.3275    1.8478   -2.6222 H   0  0  0  0  0  0  0  0  0  0  0  0
  1 14  1  6  0  0  0
  1  2  1  0  0  0  0
  2  4  1  0  0  0  0
  2  3  2  0  0  0  0
  5  6  1  0  0  0  0
  5  1  1  0  0  0  0
  5 17  1  0  0  0  0
  6  7  1  0  0  0  0
  7  8  2  0  0  0  0
  7  9  1  0  0  0  0
  9 20  1  0  0  0  0
 10 21  1  0  0  0  0
 10  1  1  0  0  0  0
 11 12  2  0  0  0  0
 11 10  1  0  0  0  0
 13 23  1  0  0  0  0
 13 22  1  0  0  0  0
 13 11  1  0  0  0  0
 15  4  1  0  0  0  0
 16  5  1  0  0  0  0
 18  6  1  0  0  0  0
 19  6  1  0  0  0  0
 24 13  1  0  0  0  0
M  END
