55.6064
 OpenBabel10231816213D

 40 42  0  0  0  0  0  0  0  0999 V2000
    5.4934    3.3361    1.6197 O   0  0  0  0  0  0  0  0  0  0  0  0
    5.4544    2.1271    1.9011 C   0  0  0  0  0  0  0  0  0  0  0  0
    6.5450    1.4801    2.7069 C   0  0  0  0  0  0  0  0  0  0  0  0
    4.3121    1.2882    1.4390 C   0  0  0  0  0  0  0  0  0  0  0  0
    3.3005    1.8953    0.6877 C   0  0  0  0  0  0  0  0  0  0  0  0
    2.2071    1.1498    0.2305 C   0  0  0  0  0  0  0  0  0  0  0  0
    2.1130   -0.2089    0.5189 C   0  0  0  0  0  0  0  0  0  0  0  0
    3.1247   -0.8175    1.2708 C   0  0  0  0  0  0  0  0  0  0  0  0
    4.2188   -0.0760    1.7299 C   0  0  0  0  0  0  0  0  0  0  0  0
    1.0499   -1.0292    0.0896 N   0  0  0  0  0  0  0  0  0  0  0  0
   -0.0595   -0.6515   -0.6401 C   0  0  0  0  0  0  0  0  0  0  0  0
   -0.3100    0.5033   -0.9803 O   0  0  0  0  0  0  0  0  0  0  0  0
   -0.9671   -1.7553   -0.9846 C   0  0  0  0  0  0  0  0  0  0  0  0
   -0.6450   -3.1285   -1.1855 C   0  0  0  0  0  0  0  0  0  0  0  0
   -1.7021   -3.8706   -1.5214 N   0  0  0  0  0  0  0  0  0  0  0  0
   -2.7126   -2.9868   -1.5459 N   0  0  0  0  0  0  0  0  0  0  0  0
   -2.3456   -1.6969   -1.2152 C   0  0  0  0  0  0  0  0  0  0  0  0
   -3.3283   -0.6005   -1.1881 C   0  0  0  0  0  0  0  0  0  0  0  0
   -3.1310    0.5388   -1.9865 C   0  0  0  0  0  0  0  0  0  0  0  0
   -4.0919    1.5532   -2.0584 C   0  0  0  0  0  0  0  0  0  0  0  0
   -3.8063    2.9261   -3.0691 Cl  0  0  0  0  0  0  0  0  0  0  0  0
   -5.2693    1.4478   -1.3287 C   0  0  0  0  0  0  0  0  0  0  0  0
   -6.2095    2.4381   -1.4308 O   0  0  0  0  0  0  0  0  0  0  0  0
   -5.4789    0.3461   -0.5003 C   0  0  0  0  0  0  0  0  0  0  0  0
   -4.5071   -0.6580   -0.4248 C   0  0  0  0  0  0  0  0  0  0  0  0
   -4.8035   -1.6797    0.4391 O   0  0  0  0  0  0  0  0  0  0  0  0
    7.0290    0.6865    2.1312 H   0  0  0  0  0  0  0  0  0  0  0  0
    6.1431    1.0674    3.6361 H   0  0  0  0  0  0  0  0  0  0  0  0
    7.2971    2.2353    2.9584 H   0  0  0  0  0  0  0  0  0  0  0  0
    3.3732    2.9581    0.4619 H   0  0  0  0  0  0  0  0  0  0  0  0
    1.4354    1.6477   -0.3485 H   0  0  0  0  0  0  0  0  0  0  0  0
    3.0750   -1.8784    1.5074 H   0  0  0  0  0  0  0  0  0  0  0  0
    4.9816   -0.5853    2.3098 H   0  0  0  0  0  0  0  0  0  0  0  0
    1.0928   -1.9859    0.4015 H   0  0  0  0  0  0  0  0  0  0  0  0
    0.3187   -3.6235   -1.1237 H   0  0  0  0  0  0  0  0  0  0  0  0
   -3.6332   -3.3291   -1.8145 H   0  0  0  0  0  0  0  0  0  0  0  0
   -2.2161    0.6560   -2.5616 H   0  0  0  0  0  0  0  0  0  0  0  0
   -6.9706    2.2267   -0.8708 H   0  0  0  0  0  0  0  0  0  0  0  0
   -6.3780    0.2401    0.0989 H   0  0  0  0  0  0  0  0  0  0  0  0
   -3.9994   -2.1864    0.6404 H   0  0  0  0  0  0  0  0  0  0  0  0
  1  2  2  0  0  0  0
  2  3  1  0  0  0  0
  3 29  1  0  0  0  0
  3 28  1  0  0  0  0
  4  9  1  0  0  0  0
  4  2  1  0  0  0  0
  5  4  2  0  0  0  0
  6  7  2  0  0  0  0
  6  5  1  0  0  0  0
  7  8  1  0  0  0  0
  8 32  1  0  0  0  0
  8  9  2  0  0  0  0
  9 33  1  0  0  0  0
 10 34  1  0  0  0  0
 10  7  1  0  0  0  0
 11 10  1  0  0  0  0
 12 11  2  0  0  0  0
 13 11  1  0  0  0  0
 14 35  1  0  0  0  0
 14 13  1  0  0  0  0
 15 14  2  0  0  0  0
 16 15  1  0  0  0  0
 16 17  1  0  0  0  0
 17 18  1  0  0  0  0
 17 13  2  0  0  0  0
 18 25  2  0  0  0  0
 19 18  1  0  0  0  0
 20 19  2  0  0  0  0
 20 22  1  0  0  0  0
 21 20  1  0  0  0  0
 22 24  2  0  0  0  0
 23 22  1  0  0  0  0
 23 38  1  0  0  0  0
 24 25  1  0  0  0  0
 24 39  1  0  0  0  0
 25 26  1  0  0  0  0
 26 40  1  0  0  0  0
 27  3  1  0  0  0  0
 30  5  1  0  0  0  0
 31  6  1  0  0  0  0
 36 16  1  0  0  0  0
 37 19  1  0  0  0  0
M  END
