102.504
 OpenBabel10231816213D

 46 48  0  0  1  0  0  0  0  0999 V2000
    1.6969    0.2848   -1.9170 O   0  0  0  0  0  0  0  0  0  0  0  0
    2.1045   -0.1230   -0.8327 C   0  0  0  0  0  0  0  0  0  0  0  0
    1.3408   -0.9232    0.0292 N   0  0  0  0  0  0  0  0  0  0  0  0
    0.1345   -1.5776   -0.5037 C   0  0  1  0  0  0  0  0  0  0  0  0
   -1.0392   -0.5812   -0.5801 C   0  0  0  0  0  0  0  0  0  0  0  0
   -1.2654    0.0706    0.7287 N   0  0  0  0  0  0  0  0  0  0  0  0
   -0.0722    0.5999    1.4245 C   0  0  1  0  0  0  0  0  0  0  0  0
    1.1079   -0.4023    1.3871 C   0  0  0  0  0  0  0  0  0  0  0  0
    0.3015    1.9761    0.8622 C   0  0  0  0  0  0  0  0  0  0  0  0
   -2.5028    0.2149    1.3463 C   0  0  0  0  0  0  0  0  0  0  0  0
   -2.6198    0.4589    2.5463 O   0  0  0  0  0  0  0  0  0  0  0  0
   -3.7437    0.0815    0.5434 C   0  0  0  0  0  0  0  0  0  0  0  0
   -3.8559    0.6470   -0.7297 C   0  0  0  0  0  0  0  0  0  0  0  0
   -5.0438    0.5125   -1.4543 C   0  0  0  0  0  0  0  0  0  0  0  0
   -6.1285   -0.1566   -0.8846 C   0  0  0  0  0  0  0  0  0  0  0  0
   -6.0331   -0.6842    0.4026 C   0  0  0  0  0  0  0  0  0  0  0  0
   -4.8433   -0.5576    1.1210 C   0  0  0  0  0  0  0  0  0  0  0  0
    0.3487   -2.3336   -1.8142 C   0  0  0  0  0  0  0  0  0  0  0  0
    3.4844    0.2323   -0.4032 C   0  0  0  0  0  0  0  0  0  0  0  0
    4.1916   -0.5581    0.5125 C   0  0  0  0  0  0  0  0  0  0  0  0
    5.4767   -0.1910    0.9063 C   0  0  0  0  0  0  0  0  0  0  0  0
    6.0704    0.9486    0.3641 C   0  0  0  0  0  0  0  0  0  0  0  0
    5.3849    1.7180   -0.5760 C   0  0  0  0  0  0  0  0  0  0  0  0
    4.0941    1.3603   -0.9635 C   0  0  0  0  0  0  0  0  0  0  0  0
   -0.1312   -2.3419    0.2413 H   0  0  0  0  0  0  0  0  0  0  0  0
   -0.8413    0.2090   -1.3136 H   0  0  0  0  0  0  0  0  0  0  0  0
   -1.9319   -1.1265   -0.8935 H   0  0  0  0  0  0  0  0  0  0  0  0
   -0.3116    0.7596    2.4824 H   0  0  0  0  0  0  0  0  0  0  0  0
    0.8717   -1.2675    2.0202 H   0  0  0  0  0  0  0  0  0  0  0  0
    2.0001    0.0706    1.8031 H   0  0  0  0  0  0  0  0  0  0  0  0
   -0.5092    2.6928    1.0332 H   0  0  0  0  0  0  0  0  0  0  0  0
    1.2045    2.3645    1.3427 H   0  0  0  0  0  0  0  0  0  0  0  0
    0.4732    1.9525   -0.2179 H   0  0  0  0  0  0  0  0  0  0  0  0
   -3.0296    1.1987   -1.1705 H   0  0  0  0  0  0  0  0  0  0  0  0
   -5.1231    0.9353   -2.4502 H   0  0  0  0  0  0  0  0  0  0  0  0
   -7.0558   -0.2532   -1.4433 H   0  0  0  0  0  0  0  0  0  0  0  0
   -6.8869   -1.1827    0.8527 H   0  0  0  0  0  0  0  0  0  0  0  0
   -4.7741   -0.9563    2.1329 H   0  0  0  0  0  0  0  0  0  0  0  0
    1.1643   -3.0564   -1.7101 H   0  0  0  0  0  0  0  0  0  0  0  0
   -0.5581   -2.8799   -2.0922 H   0  0  0  0  0  0  0  0  0  0  0  0
    0.5925   -1.6723   -2.6503 H   0  0  0  0  0  0  0  0  0  0  0  0
    3.7456   -1.4584    0.9275 H   0  0  0  0  0  0  0  0  0  0  0  0
    6.0160   -0.7958    1.6310 H   0  0  0  0  0  0  0  0  0  0  0  0
    7.0736    1.2342    0.6686 H   0  0  0  0  0  0  0  0  0  0  0  0
    5.8573    2.5962   -1.0082 H   0  0  0  0  0  0  0  0  0  0  0  0
    3.5649    1.9607   -1.7012 H   0  0  0  0  0  0  0  0  0  0  0  0
  1  2  2  0  0  0  0
  2 19  1  0  0  0  0
  2  3  1  0  0  0  0
  3  8  1  0  0  0  0
  4  3  1  0  0  0  0
  4 25  1  1  0  0  0
  5  4  1  0  0  0  0
  5  6  1  0  0  0  0
  6 10  1  0  0  0  0
  6  7  1  0  0  0  0
  7 28  1  1  0  0  0
  8  7  1  0  0  0  0
  8 30  1  0  0  0  0
  8 29  1  0  0  0  0
  9 31  1  0  0  0  0
  9 32  1  0  0  0  0
  9  7  1  0  0  0  0
 10 11  2  0  0  0  0
 12 17  1  0  0  0  0
 12 10  1  0  0  0  0
 13 12  2  0  0  0  0
 14 15  2  0  0  0  0
 14 13  1  0  0  0  0
 15 16  1  0  0  0  0
 16 37  1  0  0  0  0
 16 17  2  0  0  0  0
 17 38  1  0  0  0  0
 18 39  1  0  0  0  0
 18  4  1  0  0  0  0
 19 20  2  0  0  0  0
 20 21  1  0  0  0  0
 20 42  1  0  0  0  0
 21 43  1  0  0  0  0
 22 44  1  0  0  0  0
 22 21  2  0  0  0  0
 23 22  1  0  0  0  0
 24 23  2  0  0  0  0
 24 19  1  0  0  0  0
 26  5  1  0  0  0  0
 27  5  1  0  0  0  0
 33  9  1  0  0  0  0
 34 13  1  0  0  0  0
 35 14  1  0  0  0  0
 36 15  1  0  0  0  0
 40 18  1  0  0  0  0
 41 18  1  0  0  0  0
 45 23  1  0  0  0  0
 46 24  1  0  0  0  0
M  END
