65.515
 OpenBabel10231816213D

 50 52  0  0  1  0  0  0  0  0999 V2000
    6.2904    1.8750   -0.2796 O   0  0  0  0  0  0  0  0  0  0  0  0
    6.1662    0.8098   -1.0891 C   0  0  0  0  0  0  0  0  0  0  0  0
    7.1366    0.3721   -1.7086 O   0  0  0  0  0  0  0  0  0  0  0  0
    4.7928    0.1996   -1.0910 C   0  0  1  0  0  0  0  0  0  0  0  0
    4.5422   -0.5483    0.2204 C   0  0  0  0  0  0  0  0  0  0  0  0
    3.1562   -1.1997    0.2151 C   0  0  0  0  0  0  0  0  0  0  0  0
    2.0197   -0.1739    0.0085 C   0  0  2  0  0  0  0  0  0  0  0  0
    2.3053    0.5840   -1.3219 C   0  0  0  0  0  0  0  0  0  0  0  0
    3.6945    1.2396   -1.3402 C   0  0  0  0  0  0  0  0  0  0  0  0
    2.0296    0.7960    1.1430 C   0  0  0  0  0  0  0  0  0  0  0  0
    2.0393    1.5645    2.0059 N   0  0  0  0  0  0  0  0  0  0  0  0
    0.6282   -0.8234   -0.0603 C   0  0  0  0  0  0  0  0  0  0  0  0
    0.4227   -2.2119   -0.0867 C   0  0  0  0  0  0  0  0  0  0  0  0
   -0.8710   -2.7461   -0.1374 C   0  0  0  0  0  0  0  0  0  0  0  0
   -1.9837   -1.9036   -0.1561 C   0  0  0  0  0  0  0  0  0  0  0  0
   -3.2838   -2.3050   -0.2201 O   0  0  0  0  0  0  0  0  0  0  0  0
   -3.5348   -3.6955   -0.2488 C   0  0  0  0  0  0  0  0  0  0  0  0
   -1.7889   -0.5236   -0.1058 C   0  0  0  0  0  0  0  0  0  0  0  0
   -0.5052    0.0109   -0.0722 C   0  0  0  0  0  0  0  0  0  0  0  0
   -2.8320    0.3543   -0.2256 O   0  0  0  0  0  0  0  0  0  0  0  0
   -3.6076    0.4820    0.9782 C   0  0  0  0  0  0  0  0  0  0  0  0
   -3.1957    1.7624    1.7025 C   0  0  0  0  0  0  0  0  0  0  0  0
   -3.8155    2.8912    0.8684 C   0  0  0  0  0  0  0  0  0  0  0  0
   -4.9579    2.2467    0.0669 C   0  0  0  0  0  0  0  0  0  0  0  0
   -5.0435    0.8001    0.5648 C   0  0  0  0  0  0  0  0  0  0  0  0
    7.2286    2.1503   -0.3386 H   0  0  0  0  0  0  0  0  0  0  0  0
    4.7733   -0.5211   -1.9151 H   0  0  0  0  0  0  0  0  0  0  0  0
    4.6271    0.1395    1.0715 H   0  0  0  0  0  0  0  0  0  0  0  0
    5.3076   -1.3156    0.3692 H   0  0  0  0  0  0  0  0  0  0  0  0
    3.1376   -1.9380   -0.5968 H   0  0  0  0  0  0  0  0  0  0  0  0
    3.0095   -1.7464    1.1549 H   0  0  0  0  0  0  0  0  0  0  0  0
    2.2497   -0.1272   -2.1632 H   0  0  0  0  0  0  0  0  0  0  0  0
    1.5466    1.3507   -1.5185 H   0  0  0  0  0  0  0  0  0  0  0  0
    3.7400    2.0285   -0.5775 H   0  0  0  0  0  0  0  0  0  0  0  0
    3.8607    1.7424   -2.3018 H   0  0  0  0  0  0  0  0  0  0  0  0
    1.2537   -2.9140   -0.0660 H   0  0  0  0  0  0  0  0  0  0  0  0
   -0.9777   -3.8260   -0.1634 H   0  0  0  0  0  0  0  0  0  0  0  0
   -3.1055   -4.1547   -1.1439 H   0  0  0  0  0  0  0  0  0  0  0  0
   -3.1633   -4.1858    0.6570 H   0  0  0  0  0  0  0  0  0  0  0  0
   -4.6194   -3.8125   -0.2843 H   0  0  0  0  0  0  0  0  0  0  0  0
   -0.3916    1.0914   -0.0355 H   0  0  0  0  0  0  0  0  0  0  0  0
   -3.5594   -0.3987    1.6320 H   0  0  0  0  0  0  0  0  0  0  0  0
   -2.1091    1.8624    1.7846 H   0  0  0  0  0  0  0  0  0  0  0  0
   -3.6118    1.7786    2.7176 H   0  0  0  0  0  0  0  0  0  0  0  0
   -4.1708    3.7092    1.5055 H   0  0  0  0  0  0  0  0  0  0  0  0
   -3.0716    3.3250    0.1883 H   0  0  0  0  0  0  0  0  0  0  0  0
   -5.9066    2.7820    0.1840 H   0  0  0  0  0  0  0  0  0  0  0  0
   -4.7165    2.2643   -1.0041 H   0  0  0  0  0  0  0  0  0  0  0  0
   -5.7252    0.7400    1.4235 H   0  0  0  0  0  0  0  0  0  0  0  0
   -5.4098    0.1183   -0.2098 H   0  0  0  0  0  0  0  0  0  0  0  0
  2  1  1  0  0  0  0
  3  2  2  0  0  0  0
  4 27  1  6  0  0  0
  4  2  1  0  0  0  0
  4  5  1  0  0  0  0
  5 29  1  0  0  0  0
  5 28  1  0  0  0  0
  6  5  1  0  0  0  0
  6 31  1  0  0  0  0
  7 12  1  6  0  0  0
  7  6  1  0  0  0  0
  7 10  1  0  0  0  0
  8  7  1  0  0  0  0
  9  8  1  0  0  0  0
  9  4  1  0  0  0  0
  9 34  1  0  0  0  0
 10 11  3  0  0  0  0
 13 36  1  0  0  0  0
 13 12  2  0  0  0  0
 14 13  1  0  0  0  0
 15 14  2  0  0  0  0
 15 18  1  0  0  0  0
 16 15  1  0  0  0  0
 17 16  1  0  0  0  0
 17 39  1  0  0  0  0
 18 19  2  0  0  0  0
 19 12  1  0  0  0  0
 19 41  1  0  0  0  0
 20 18  1  0  0  0  0
 20 21  1  0  0  0  0
 21 42  1  0  0  0  0
 21 22  1  0  0  0  0
 22 43  1  0  0  0  0
 22 44  1  0  0  0  0
 23 45  1  0  0  0  0
 23 22  1  0  0  0  0
 24 47  1  0  0  0  0
 24 25  1  0  0  0  0
 24 23  1  0  0  0  0
 25 21  1  0  0  0  0
 25 49  1  0  0  0  0
 26  1  1  0  0  0  0
 30  6  1  0  0  0  0
 32  8  1  0  0  0  0
 33  8  1  0  0  0  0
 35  9  1  0  0  0  0
 37 14  1  0  0  0  0
 38 17  1  0  0  0  0
 40 17  1  0  0  0  0
 46 23  1  0  0  0  0
 48 24  1  0  0  0  0
 50 25  1  0  0  0  0
M  END
