-4.34083
 OpenBabel10231816213D

 45 47  0  0  0  0  0  0  0  0999 V2000
   -4.5764   -2.3532    1.1467 O   0  0  0  0  0  0  0  0  0  0  0  0
   -4.9009   -1.3915    0.2255 N   0  0  0  0  0  0  0  0  0  0  0  0
   -3.7717   -0.7137   -0.0377 C   0  0  0  0  0  0  0  0  0  0  0  0
   -2.6649   -1.2780    0.6819 C   0  0  0  0  0  0  0  0  0  0  0  0
   -1.2375   -0.9756    0.7236 C   0  0  0  0  0  0  0  0  0  0  0  0
   -0.5408   -1.4144    1.6347 O   0  0  0  0  0  0  0  0  0  0  0  0
   -0.7464   -0.2045   -0.3139 N   0  0  0  0  0  0  0  0  0  0  0  0
    0.5769    0.1853   -0.4374 C   0  0  0  0  0  0  0  0  0  0  0  0
    1.0213    1.0451   -1.4165 C   0  0  0  0  0  0  0  0  0  0  0  0
    2.3727    1.2330   -1.2486 N   0  0  0  0  0  0  0  0  0  0  0  0
    3.1874    2.0909   -2.0817 C   0  0  0  0  0  0  0  0  0  0  0  0
    2.8222    0.4896   -0.1737 C   0  0  0  0  0  0  0  0  0  0  0  0
    1.7072   -0.1651    0.3349 C   0  0  0  0  0  0  0  0  0  0  0  0
    4.1905    0.4375    0.2922 C   0  0  0  0  0  0  0  0  0  0  0  0
    5.1303    1.0666   -0.1791 O   0  0  0  0  0  0  0  0  0  0  0  0
    4.2905   -0.4206    1.3426 O   0  0  0  0  0  0  0  0  0  0  0  0
    5.6087   -0.5410    1.8829 C   0  0  0  0  0  0  0  0  0  0  0  0
    5.5401   -1.5082    3.0464 C   0  0  0  0  0  0  0  0  0  0  0  0
   -3.2546   -2.2837    1.4342 C   0  0  0  0  0  0  0  0  0  0  0  0
   -2.7825   -3.2769    2.4244 C   0  0  0  0  0  0  0  0  0  0  0  0
   -3.8432    0.4240   -0.9536 C   0  0  0  0  0  0  0  0  0  0  0  0
   -4.4707    0.2738   -2.2001 C   0  0  0  0  0  0  0  0  0  0  0  0
   -4.5731    1.3528   -3.0804 C   0  0  0  0  0  0  0  0  0  0  0  0
   -4.0539    2.5946   -2.7219 C   0  0  0  0  0  0  0  0  0  0  0  0
   -3.4382    2.7593   -1.4805 C   0  0  0  0  0  0  0  0  0  0  0  0
   -3.3382    1.6814   -0.5958 C   0  0  0  0  0  0  0  0  0  0  0  0
   -1.3636    0.1111   -1.0466 H   0  0  0  0  0  0  0  0  0  0  0  0
    0.4902    1.5540   -2.2097 H   0  0  0  0  0  0  0  0  0  0  0  0
    4.0795    1.5441   -2.3956 H   0  0  0  0  0  0  0  0  0  0  0  0
    3.4534    2.9810   -1.5047 H   0  0  0  0  0  0  0  0  0  0  0  0
    2.6181    2.3775   -2.9689 H   0  0  0  0  0  0  0  0  0  0  0  0
    1.7312   -0.8373    1.1844 H   0  0  0  0  0  0  0  0  0  0  0  0
    5.9588    0.4376    2.2303 H   0  0  0  0  0  0  0  0  0  0  0  0
    6.2903   -0.9267    1.1167 H   0  0  0  0  0  0  0  0  0  0  0  0
    5.1629   -2.4806    2.7127 H   0  0  0  0  0  0  0  0  0  0  0  0
    6.5231   -1.6450    3.5036 H   0  0  0  0  0  0  0  0  0  0  0  0
    4.8415   -1.1412    3.8064 H   0  0  0  0  0  0  0  0  0  0  0  0
   -3.3936   -3.2323    3.3319 H   0  0  0  0  0  0  0  0  0  0  0  0
   -1.7461   -3.1168    2.7252 H   0  0  0  0  0  0  0  0  0  0  0  0
   -2.8566   -4.2882    2.0126 H   0  0  0  0  0  0  0  0  0  0  0  0
   -4.8995   -0.6855   -2.4864 H   0  0  0  0  0  0  0  0  0  0  0  0
   -5.0710    1.2257   -4.0391 H   0  0  0  0  0  0  0  0  0  0  0  0
   -4.1436    3.4374   -3.4033 H   0  0  0  0  0  0  0  0  0  0  0  0
   -3.0514    3.7353   -1.1964 H   0  0  0  0  0  0  0  0  0  0  0  0
   -2.8785    1.8420    0.3776 H   0  0  0  0  0  0  0  0  0  0  0  0
  1 19  1  0  0  0  0
  2  1  1  0  0  0  0
  3  2  2  0  0  0  0
  3  4  1  0  0  0  0
  4  5  1  0  0  0  0
  4 19  2  0  0  0  0
  5  6  2  0  0  0  0
  7  5  1  0  0  0  0
  8  7  1  0  0  0  0
  8 13  1  0  0  0  0
  9 10  1  0  0  0  0
  9  8  2  0  0  0  0
 10 12  1  0  0  0  0
 11 30  1  0  0  0  0
 11 10  1  0  0  0  0
 12 14  1  0  0  0  0
 12 13  2  0  0  0  0
 13 32  1  0  0  0  0
 14 16  1  0  0  0  0
 15 14  2  0  0  0  0
 16 17  1  0  0  0  0
 17 33  1  0  0  0  0
 17 18  1  0  0  0  0
 18 36  1  0  0  0  0
 18 37  1  0  0  0  0
 19 20  1  0  0  0  0
 20 39  1  0  0  0  0
 20 38  1  0  0  0  0
 21 26  1  0  0  0  0
 21  3  1  0  0  0  0
 22 21  2  0  0  0  0
 23 24  2  0  0  0  0
 23 22  1  0  0  0  0
 24 25  1  0  0  0  0
 25 44  1  0  0  0  0
 25 26  2  0  0  0  0
 26 45  1  0  0  0  0
 27  7  1  0  0  0  0
 28  9  1  0  0  0  0
 29 11  1  0  0  0  0
 31 11  1  0  0  0  0
 34 17  1  0  0  0  0
 35 18  1  0  0  0  0
 40 20  1  0  0  0  0
 41 22  1  0  0  0  0
 42 23  1  0  0  0  0
 43 24  1  0  0  0  0
M  END
