-14.5432
 OpenBabel10231816213D

 66 68  0  0  1  0  0  0  0  0999 V2000
    0.5952   -1.2593    0.7458 C   0  0  2  0  0  0  0  0  0  0  0  0
    0.7680   -2.2203   -0.4328 C   0  0  0  0  0  0  0  0  0  0  0  0
   -0.5857   -2.8154   -0.7693 C   0  0  0  0  0  0  0  0  0  0  0  0
   -1.0999   -3.8658   -0.0050 C   0  0  0  0  0  0  0  0  0  0  0  0
   -2.4354   -4.2509   -0.1409 C   0  0  0  0  0  0  0  0  0  0  0  0
   -3.2743   -3.5744   -1.0255 C   0  0  0  0  0  0  0  0  0  0  0  0
   -2.7509   -2.5857   -1.8525 C   0  0  0  0  0  0  0  0  0  0  0  0
   -1.4137   -2.2044   -1.7210 C   0  0  0  0  0  0  0  0  0  0  0  0
   -4.5889   -3.9322   -1.0017 O   0  0  0  0  0  0  0  0  0  0  0  0
   -5.5541   -2.8722   -1.0097 C   0  0  0  0  0  0  0  0  0  0  0  0
   -5.5124   -1.9666    0.2288 C   0  0  0  0  0  0  0  0  0  0  0  0
   -4.3685   -0.9411    0.2309 C   0  0  0  0  0  0  0  0  0  0  0  0
   -4.4876    0.0512    1.3583 C   0  0  0  0  0  0  0  0  0  0  0  0
   -5.3703   -0.0224    2.2299 O   0  0  0  0  0  0  0  0  0  0  0  0
   -3.5690    1.0589    1.4244 N   0  0  0  0  0  0  0  0  0  0  0  0
   -2.3479    1.1757    0.6249 C   0  0  2  0  0  0  0  0  0  0  0  0
   -1.2555    0.3164    1.2656 C   0  0  0  0  0  0  0  0  0  0  0  0
   -1.1447    0.1397    2.4748 O   0  0  0  0  0  0  0  0  0  0  0  0
   -0.3509   -0.2084    0.3796 N   0  0  0  0  0  0  0  0  0  0  0  0
   -1.9006    2.6258    0.5743 C   0  0  0  0  0  0  0  0  0  0  0  0
   -0.7153    2.7723   -0.3406 C   0  0  0  0  0  0  0  0  0  0  0  0
   -0.5104    2.0323   -1.2867 O   0  0  0  0  0  0  0  0  0  0  0  0
    0.1352    3.7921   -0.0314 N   0  0  0  0  0  0  0  0  0  0  0  0
    1.9250   -0.7032    1.2886 C   0  0  2  0  0  0  0  0  0  0  0  0
    1.6739    0.3314    2.2647 O   0  0  0  0  0  0  0  0  0  0  0  0
    2.8763   -0.1002    0.2559 C   0  0  0  0  0  0  0  0  0  0  0  0
    2.2960    1.1296   -0.2831 N   0  0  0  0  0  0  0  0  0  0  0  0
    3.1001    1.9766   -1.4707 S   0  0  0  0  0  0  0  0  0  0  0  0
    2.4749    3.2869   -1.5017 O   0  0  0  0  0  0  0  0  0  0  0  0
    3.1742    1.1352   -2.6414 O   0  0  0  0  0  0  0  0  0  0  0  0
    4.7414    2.1700   -0.8211 C   0  0  0  0  0  0  0  0  0  0  0  0
    5.6811    1.1564   -1.0173 C   0  0  0  0  0  0  0  0  0  0  0  0
    6.9709    1.2983   -0.5040 C   0  0  0  0  0  0  0  0  0  0  0  0
    7.3240    2.4610    0.1835 C   0  0  0  0  0  0  0  0  0  0  0  0
    6.3885    3.4828    0.3573 C   0  0  0  0  0  0  0  0  0  0  0  0
    5.0948    3.3399   -0.1509 C   0  0  0  0  0  0  0  0  0  0  0  0
    0.1331   -1.8009    1.5837 H   0  0  0  0  0  0  0  0  0  0  0  0
    1.4867   -3.0079   -0.1774 H   0  0  0  0  0  0  0  0  0  0  0  0
    1.1579   -1.6745   -1.3003 H   0  0  0  0  0  0  0  0  0  0  0  0
   -0.4659   -4.3593    0.7272 H   0  0  0  0  0  0  0  0  0  0  0  0
   -2.8356   -5.0526    0.4747 H   0  0  0  0  0  0  0  0  0  0  0  0
   -3.3848   -2.0646   -2.5590 H   0  0  0  0  0  0  0  0  0  0  0  0
   -1.0319   -1.3833   -2.3241 H   0  0  0  0  0  0  0  0  0  0  0  0
   -5.5057   -2.2805   -1.9303 H   0  0  0  0  0  0  0  0  0  0  0  0
   -6.5231   -3.3934   -1.0226 H   0  0  0  0  0  0  0  0  0  0  0  0
   -5.4544   -2.5820    1.1341 H   0  0  0  0  0  0  0  0  0  0  0  0
   -6.4577   -1.4118    0.2768 H   0  0  0  0  0  0  0  0  0  0  0  0
   -3.4039   -1.4392    0.3760 H   0  0  0  0  0  0  0  0  0  0  0  0
   -4.3411   -0.4148   -0.7266 H   0  0  0  0  0  0  0  0  0  0  0  0
   -3.5611    1.5203    2.3282 H   0  0  0  0  0  0  0  0  0  0  0  0
   -2.5478    0.8070   -0.3837 H   0  0  0  0  0  0  0  0  0  0  0  0
   -0.3053    0.1806   -0.5652 H   0  0  0  0  0  0  0  0  0  0  0  0
   -1.6791    2.9952    1.5814 H   0  0  0  0  0  0  0  0  0  0  0  0
   -2.7170    3.2250    0.1651 H   0  0  0  0  0  0  0  0  0  0  0  0
   -0.0249    4.4306    0.7337 H   0  0  0  0  0  0  0  0  0  0  0  0
    0.9891    3.8776   -0.5932 H   0  0  0  0  0  0  0  0  0  0  0  0
    2.4520   -1.5250    1.7933 H   0  0  0  0  0  0  0  0  0  0  0  0
    0.7655    0.1809    2.6066 H   0  0  0  0  0  0  0  0  0  0  0  0
    3.1211   -0.7971   -0.5434 H   0  0  0  0  0  0  0  0  0  0  0  0
    3.7950    0.1639    0.7869 H   0  0  0  0  0  0  0  0  0  0  0  0
    1.8932    1.7392    0.4292 H   0  0  0  0  0  0  0  0  0  0  0  0
    5.4004    0.2549   -1.5548 H   0  0  0  0  0  0  0  0  0  0  0  0
    7.6997    0.5046   -0.6433 H   0  0  0  0  0  0  0  0  0  0  0  0
    8.3316    2.5716    0.5800 H   0  0  0  0  0  0  0  0  0  0  0  0
    6.6645    4.3911    0.8881 H   0  0  0  0  0  0  0  0  0  0  0  0
    4.3659    4.1344   -0.0214 H   0  0  0  0  0  0  0  0  0  0  0  0
  1 24  1  0  0  0  0
  1 37  1  1  0  0  0
  2 38  1  0  0  0  0
  2  1  1  0  0  0  0
  3  2  1  0  0  0  0
  3  4  2  0  0  0  0
  4 40  1  0  0  0  0
  5  4  1  0  0  0  0
  5 41  1  0  0  0  0
  6  9  1  0  0  0  0
  6  5  2  0  0  0  0
  7  8  2  0  0  0  0
  7  6  1  0  0  0  0
  8  3  1  0  0  0  0
 10  9  1  0  0  0  0
 10 11  1  0  0  0  0
 11 12  1  0  0  0  0
 11 47  1  0  0  0  0
 11 46  1  0  0  0  0
 12 48  1  0  0  0  0
 12 13  1  0  0  0  0
 13 15  1  0  0  0  0
 13 14  2  0  0  0  0
 15 50  1  0  0  0  0
 16 51  1  6  0  0  0
 16 17  1  0  0  0  0
 16 15  1  0  0  0  0
 17 18  2  0  0  0  0
 19  1  1  0  0  0  0
 19 17  1  0  0  0  0
 20 16  1  0  0  0  0
 20 53  1  0  0  0  0
 21 23  1  0  0  0  0
 21 20  1  0  0  0  0
 22 21  2  0  0  0  0
 23 55  1  0  0  0  0
 24 57  1  1  0  0  0
 24 25  1  0  0  0  0
 25 58  1  0  0  0  0
 26 60  1  0  0  0  0
 26 24  1  0  0  0  0
 27 26  1  0  0  0  0
 27 61  1  0  0  0  0
 28 31  1  0  0  0  0
 28 27  1  0  0  0  0
 29 28  2  0  0  0  0
 30 28  2  0  0  0  0
 31 36  1  0  0  0  0
 32 31  2  0  0  0  0
 32 33  1  0  0  0  0
 33 34  2  0  0  0  0
 34 35  1  0  0  0  0
 34 64  1  0  0  0  0
 35 65  1  0  0  0  0
 36 66  1  0  0  0  0
 36 35  2  0  0  0  0
 39  2  1  0  0  0  0
 42  7  1  0  0  0  0
 43  8  1  0  0  0  0
 44 10  1  0  0  0  0
 45 10  1  0  0  0  0
 49 12  1  0  0  0  0
 52 19  1  0  0  0  0
 54 20  1  0  0  0  0
 56 23  1  0  0  0  0
 59 26  1  0  0  0  0
 62 32  1  0  0  0  0
 63 33  1  0  0  0  0
M  END
