-82.624
 OpenBabel10231816213D

 35 36  0  0  0  0  0  0  0  0999 V2000
   -2.7586   -1.1811   -1.6472 N   0  0  0  0  0  0  0  0  0  0  0  0
   -4.0087   -1.1572   -1.2087 C   0  0  0  0  0  0  0  0  0  0  0  0
   -4.3996   -0.7918    0.0173 N   0  0  0  0  0  0  0  0  0  0  0  0
   -3.4352   -0.4226    0.8677 C   0  0  0  0  0  0  0  0  0  0  0  0
   -2.0930   -0.4307    0.5354 C   0  0  0  0  0  0  0  0  0  0  0  0
   -1.8106   -0.8182   -0.7671 C   0  0  0  0  0  0  0  0  0  0  0  0
   -1.0333   -0.0211    1.5207 C   0  0  0  0  0  0  0  0  0  0  0  0
    0.3906   -0.1593    1.0331 C   0  0  0  0  0  0  0  0  0  0  0  0
    1.1505    0.9807    0.7272 C   0  0  0  0  0  0  0  0  0  0  0  0
    2.4534    0.8526    0.2428 C   0  0  0  0  0  0  0  0  0  0  0  0
    2.9955   -0.4117    0.0260 C   0  0  0  0  0  0  0  0  0  0  0  0
    2.2551   -1.5526    0.3338 C   0  0  0  0  0  0  0  0  0  0  0  0
    0.9548   -1.4238    0.8265 C   0  0  0  0  0  0  0  0  0  0  0  0
    4.2937   -0.5855   -0.3799 O   0  0  0  0  0  0  0  0  0  0  0  0
    4.4705   -0.3152   -1.7732 C   0  0  0  0  0  0  0  0  0  0  0  0
    3.2884    1.8998   -0.0452 O   0  0  0  0  0  0  0  0  0  0  0  0
    2.7518    3.2021    0.1540 C   0  0  0  0  0  0  0  0  0  0  0  0
   -3.8478   -0.1421    2.1737 N   0  0  0  0  0  0  0  0  0  0  0  0
   -4.9917   -1.5579   -2.0786 N   0  0  0  0  0  0  0  0  0  0  0  0
   -0.7977   -0.8651   -1.1501 H   0  0  0  0  0  0  0  0  0  0  0  0
   -1.2029    1.0223    1.8292 H   0  0  0  0  0  0  0  0  0  0  0  0
   -1.1459   -0.6180    2.4356 H   0  0  0  0  0  0  0  0  0  0  0  0
    0.7051    1.9581    0.8788 H   0  0  0  0  0  0  0  0  0  0  0  0
    2.6933   -2.5306    0.1809 H   0  0  0  0  0  0  0  0  0  0  0  0
    0.3607   -2.3178    1.0237 H   0  0  0  0  0  0  0  0  0  0  0  0
    5.5354   -0.4651   -1.9850 H   0  0  0  0  0  0  0  0  0  0  0  0
    4.2099    0.7132   -2.0490 H   0  0  0  0  0  0  0  0  0  0  0  0
    3.8927   -1.0177   -2.3857 H   0  0  0  0  0  0  0  0  0  0  0  0
    1.8822    3.3820   -0.4874 H   0  0  0  0  0  0  0  0  0  0  0  0
    2.4924    3.3667    1.2051 H   0  0  0  0  0  0  0  0  0  0  0  0
    3.5429    3.8996   -0.1254 H   0  0  0  0  0  0  0  0  0  0  0  0
   -4.8510    0.0057    2.2358 H   0  0  0  0  0  0  0  0  0  0  0  0
   -3.2860    0.5147    2.6907 H   0  0  0  0  0  0  0  0  0  0  0  0
   -4.7192   -1.6522   -3.0427 H   0  0  0  0  0  0  0  0  0  0  0  0
   -5.9375   -1.3599   -1.8128 H   0  0  0  0  0  0  0  0  0  0  0  0
  1  2  2  0  0  0  0
  1  6  1  0  0  0  0
  2  3  1  0  0  0  0
  3  4  2  0  0  0  0
  4 18  1  0  0  0  0
  5  4  1  0  0  0  0
  5  7  1  0  0  0  0
  6  5  2  0  0  0  0
  7 21  1  0  0  0  0
  7 22  1  0  0  0  0
  8  7  1  0  0  0  0
  9 23  1  0  0  0  0
  9  8  2  0  0  0  0
 10  9  1  0  0  0  0
 11 10  2  0  0  0  0
 11 12  1  0  0  0  0
 12 13  2  0  0  0  0
 13 25  1  0  0  0  0
 13  8  1  0  0  0  0
 14 11  1  0  0  0  0
 15 14  1  0  0  0  0
 16 17  1  0  0  0  0
 16 10  1  0  0  0  0
 17 30  1  0  0  0  0
 18 32  1  0  0  0  0
 18 33  1  0  0  0  0
 19 35  1  0  0  0  0
 19  2  1  0  0  0  0
 20  6  1  0  0  0  0
 24 12  1  0  0  0  0
 26 15  1  0  0  0  0
 27 15  1  0  0  0  0
 28 15  1  0  0  0  0
 29 17  1  0  0  0  0
 31 17  1  0  0  0  0
 34 19  1  0  0  0  0
M  END
