80.0268
 OpenBabel10231816213D

 44 47  0  0  1  0  0  0  0  0999 V2000
   -1.4658   -5.6620   -0.6697 Cl  0  0  0  0  0  0  0  0  0  0  0  0
   -1.8366   -3.9886   -0.6597 C   0  0  0  0  0  0  0  0  0  0  0  0
   -1.3964   -3.1677    0.3602 C   0  0  0  0  0  0  0  0  0  0  0  0
   -1.6414   -1.8372    0.4091 N   0  0  0  0  0  0  0  0  0  0  0  0
   -2.3822   -1.2825   -0.5807 C   0  0  0  0  0  0  0  0  0  0  0  0
   -2.6175    0.0956   -0.4801 N   0  0  0  0  0  0  0  0  0  0  0  0
   -3.4808    0.8757   -1.2340 C   0  0  0  0  0  0  0  0  0  0  0  0
   -4.2095    0.5530   -2.1547 O   0  0  0  0  0  0  0  0  0  0  0  0
   -3.4041    2.2368   -0.6780 C   0  0  0  0  0  0  0  0  0  0  0  0
   -4.1272    3.3023   -1.0701 N   0  0  0  0  0  0  0  0  0  0  0  0
   -3.8683    4.4155   -0.3356 C   0  0  0  0  0  0  0  0  0  0  0  0
   -2.9523    4.4367    0.7189 C   0  0  0  0  0  0  0  0  0  0  0  0
   -2.2378    3.3497    1.0992 N   0  0  0  0  0  0  0  0  0  0  0  0
   -2.4965    2.2438    0.3634 C   0  0  0  0  0  0  0  0  0  0  0  0
   -1.8954    0.8755    0.5161 C   0  0  2  0  0  0  0  0  0  0  0  0
   -0.5326    0.9166    0.1137 O   0  0  0  0  0  0  0  0  0  0  0  0
    0.3580    0.8305    1.1267 C   0  0  0  0  0  0  0  0  0  0  0  0
    0.0698    0.8968    2.3137 O   0  0  0  0  0  0  0  0  0  0  0  0
    1.6404    0.6469    0.6578 N   0  0  0  0  0  0  0  0  0  0  0  0
    2.7411    0.5546    1.6127 C   0  0  0  0  0  0  0  0  0  0  0  0
    4.1055    0.5943    0.9022 C   0  0  0  0  0  0  0  0  0  0  0  0
    4.2822   -0.4470   -0.1362 N   0  0  0  0  0  0  0  0  0  0  0  0
    2.9883   -0.9121   -0.6843 C   0  0  0  0  0  0  0  0  0  0  0  0
    1.9323    0.2056   -0.7109 C   0  0  0  0  0  0  0  0  0  0  0  0
    5.0634   -1.5761    0.3588 C   0  0  0  0  0  0  0  0  0  0  0  0
   -2.8670   -2.0476   -1.6368 C   0  0  0  0  0  0  0  0  0  0  0  0
   -2.5816   -3.4155   -1.6795 C   0  0  0  0  0  0  0  0  0  0  0  0
   -0.8185   -3.5564    1.1937 H   0  0  0  0  0  0  0  0  0  0  0  0
   -4.4263    5.3029   -0.6124 H   0  0  0  0  0  0  0  0  0  0  0  0
   -2.7732    5.3433    1.2895 H   0  0  0  0  0  0  0  0  0  0  0  0
   -2.0873    0.4686    1.5166 H   0  0  0  0  0  0  0  0  0  0  0  0
    2.6567    1.3722    2.3380 H   0  0  0  0  0  0  0  0  0  0  0  0
    2.6264   -0.3871    2.1635 H   0  0  0  0  0  0  0  0  0  0  0  0
    4.9187    0.5749    1.6372 H   0  0  0  0  0  0  0  0  0  0  0  0
    4.1904    1.5642    0.3935 H   0  0  0  0  0  0  0  0  0  0  0  0
    2.5858   -1.7349   -0.0749 H   0  0  0  0  0  0  0  0  0  0  0  0
    3.1421   -1.3025   -1.6958 H   0  0  0  0  0  0  0  0  0  0  0  0
    2.3017    1.0733   -1.2700 H   0  0  0  0  0  0  0  0  0  0  0  0
    1.0287   -0.1557   -1.2114 H   0  0  0  0  0  0  0  0  0  0  0  0
    6.0602   -1.2429    0.6665 H   0  0  0  0  0  0  0  0  0  0  0  0
    4.5839   -2.0682    1.2126 H   0  0  0  0  0  0  0  0  0  0  0  0
    5.2094   -2.3182   -0.4336 H   0  0  0  0  0  0  0  0  0  0  0  0
   -3.4432   -1.6116   -2.4456 H   0  0  0  0  0  0  0  0  0  0  0  0
   -2.9436   -4.0157   -2.5095 H   0  0  0  0  0  0  0  0  0  0  0  0
  1  2  1  0  0  0  0
  2  3  2  0  0  0  0
  3  4  1  0  0  0  0
  3 28  1  0  0  0  0
  5  6  1  0  0  0  0
  5  4  2  0  0  0  0
  6 15  1  0  0  0  0
  7  9  1  0  0  0  0
  7  6  1  0  0  0  0
  8  7  2  0  0  0  0
  9 14  1  0  0  0  0
 10  9  2  0  0  0  0
 10 11  1  0  0  0  0
 11 12  2  0  0  0  0
 12 13  1  0  0  0  0
 12 30  1  0  0  0  0
 14 15  1  0  0  0  0
 14 13  2  0  0  0  0
 15 31  1  1  0  0  0
 16 15  1  0  0  0  0
 16 17  1  0  0  0  0
 17 18  2  0  0  0  0
 19 17  1  0  0  0  0
 19 20  1  0  0  0  0
 20 33  1  0  0  0  0
 20 32  1  0  0  0  0
 21 20  1  0  0  0  0
 21 34  1  0  0  0  0
 22 25  1  0  0  0  0
 22 21  1  0  0  0  0
 23 22  1  0  0  0  0
 23 36  1  0  0  0  0
 24 23  1  0  0  0  0
 24 19  1  0  0  0  0
 25 40  1  0  0  0  0
 25 41  1  0  0  0  0
 26  5  1  0  0  0  0
 27 26  2  0  0  0  0
 27  2  1  0  0  0  0
 29 11  1  0  0  0  0
 35 21  1  0  0  0  0
 37 23  1  0  0  0  0
 38 24  1  0  0  0  0
 39 24  1  0  0  0  0
 42 25  1  0  0  0  0
 43 26  1  0  0  0  0
 44 27  1  0  0  0  0
M  END
