-57.4618
 OpenBabel10231816213D

 39 40  0  0  0  0  0  0  0  0999 V2000
    1.1200    0.7978    1.1667 S   0  0  0  0  0  0  0  0  0  0  0  0
    0.6212    1.9738    0.4732 O   0  0  0  0  0  0  0  0  0  0  0  0
    0.4574    0.3312    2.3613 O   0  0  0  0  0  0  0  0  0  0  0  0
    2.7010    1.1630    1.4958 N   0  0  0  0  0  0  0  0  0  0  0  0
    3.4695    0.5090    2.4528 C   0  0  0  0  0  0  0  0  0  0  0  0
    3.1622   -0.5915    2.9015 O   0  0  0  0  0  0  0  0  0  0  0  0
    4.7186    1.2634    2.8351 C   0  0  0  0  0  0  0  0  0  0  0  0
    5.6720    0.3965    3.6348 C   0  0  0  0  0  0  0  0  0  0  0  0
    1.1401   -0.5028   -0.0055 C   0  0  0  0  0  0  0  0  0  0  0  0
    0.0145   -0.6958   -0.8018 C   0  0  0  0  0  0  0  0  0  0  0  0
   -1.1458    0.0503   -0.5596 N   0  0  0  0  0  0  0  0  0  0  0  0
   -2.4587   -0.2022   -0.9404 C   0  0  0  0  0  0  0  0  0  0  0  0
   -3.2347    0.8748   -1.3552 C   0  0  0  0  0  0  0  0  0  0  0  0
   -4.5278    0.6680   -1.8334 C   0  0  0  0  0  0  0  0  0  0  0  0
   -5.0375   -0.6363   -1.8937 C   0  0  0  0  0  0  0  0  0  0  0  0
   -4.2658   -1.7166   -1.4795 C   0  0  0  0  0  0  0  0  0  0  0  0
   -2.9805   -1.4933   -1.0060 C   0  0  0  0  0  0  0  0  0  0  0  0
   -5.3540    1.8282   -2.2952 C   0  0  0  0  0  0  0  0  0  0  0  0
   -4.7796    3.0370   -2.0316 F   0  0  0  0  0  0  0  0  0  0  0  0
   -5.5725    1.8020   -3.6377 F   0  0  0  0  0  0  0  0  0  0  0  0
   -6.5801    1.8618   -1.7113 F   0  0  0  0  0  0  0  0  0  0  0  0
    0.0537   -1.6975   -1.7784 C   0  0  0  0  0  0  0  0  0  0  0  0
    1.1998   -2.4533   -1.9135 C   0  0  0  0  0  0  0  0  0  0  0  0
    2.2957   -2.2815   -1.1458 N   0  0  0  0  0  0  0  0  0  0  0  0
    2.2403   -1.3097   -0.2022 C   0  0  0  0  0  0  0  0  0  0  0  0
    2.9775    2.0631    1.1194 H   0  0  0  0  0  0  0  0  0  0  0  0
    5.2045    1.6198    1.9236 H   0  0  0  0  0  0  0  0  0  0  0  0
    4.4147    2.1374    3.4223 H   0  0  0  0  0  0  0  0  0  0  0  0
    5.1902    0.0292    4.5450 H   0  0  0  0  0  0  0  0  0  0  0  0
    6.5615    0.9630    3.9204 H   0  0  0  0  0  0  0  0  0  0  0  0
    5.9902   -0.4748    3.0513 H   0  0  0  0  0  0  0  0  0  0  0  0
   -0.9832    0.9996   -0.2178 H   0  0  0  0  0  0  0  0  0  0  0  0
   -2.8188    1.8803   -1.3238 H   0  0  0  0  0  0  0  0  0  0  0  0
   -6.0484   -0.8029   -2.2616 H   0  0  0  0  0  0  0  0  0  0  0  0
   -4.6612   -2.7253   -1.5169 H   0  0  0  0  0  0  0  0  0  0  0  0
   -2.3812   -2.3383   -0.6670 H   0  0  0  0  0  0  0  0  0  0  0  0
   -0.7824   -1.8727   -2.4496 H   0  0  0  0  0  0  0  0  0  0  0  0
    1.2662   -3.2309   -2.6663 H   0  0  0  0  0  0  0  0  0  0  0  0
    3.1413   -1.2238    0.3907 H   0  0  0  0  0  0  0  0  0  0  0  0
  1  4  1  0  0  0  0
  1  3  2  0  0  0  0
  2  1  2  0  0  0  0
  4  5  1  0  0  0  0
  5  7  1  0  0  0  0
  5  6  2  0  0  0  0
  7 28  1  0  0  0  0
  7  8  1  0  0  0  0
  8 30  1  0  0  0  0
  8 29  1  0  0  0  0
  9  1  1  0  0  0  0
 10 11  1  0  0  0  0
 10  9  2  0  0  0  0
 11 32  1  0  0  0  0
 12 11  1  0  0  0  0
 13 33  1  0  0  0  0
 13 12  2  0  0  0  0
 14 13  1  0  0  0  0
 15 14  2  0  0  0  0
 15 16  1  0  0  0  0
 16 17  2  0  0  0  0
 17 12  1  0  0  0  0
 17 36  1  0  0  0  0
 18 19  1  0  0  0  0
 18 14  1  0  0  0  0
 18 21  1  0  0  0  0
 20 18  1  0  0  0  0
 22 10  1  0  0  0  0
 23 22  2  0  0  0  0
 23 24  1  0  0  0  0
 24 25  2  0  0  0  0
 25  9  1  0  0  0  0
 25 39  1  0  0  0  0
 26  4  1  0  0  0  0
 27  7  1  0  0  0  0
 31  8  1  0  0  0  0
 34 15  1  0  0  0  0
 35 16  1  0  0  0  0
 37 22  1  0  0  0  0
 38 23  1  0  0  0  0
M  END
