-4.97647
 OpenBabel10231816213D

 66 68  0  0  1  0  0  0  0  0999 V2000
    0.7154   -0.7791   -1.2030 C   0  0  2  0  0  0  0  0  0  0  0  0
    0.3394   -2.0619   -1.9841 C   0  0  0  0  0  0  0  0  0  0  0  0
   -0.9180   -2.7172   -1.4531 C   0  0  0  0  0  0  0  0  0  0  0  0
   -0.9830   -3.1581   -0.1251 C   0  0  0  0  0  0  0  0  0  0  0  0
   -2.1836   -3.6134    0.4261 C   0  0  0  0  0  0  0  0  0  0  0  0
   -3.3281   -3.6626   -0.3548 C   0  0  0  0  0  0  0  0  0  0  0  0
   -3.2619   -3.3111   -1.7026 C   0  0  0  0  0  0  0  0  0  0  0  0
   -2.0680   -2.8190   -2.2428 C   0  0  0  0  0  0  0  0  0  0  0  0
   -4.5337   -4.0877    0.1201 O   0  0  0  0  0  0  0  0  0  0  0  0
   -5.0787   -3.3178    1.2038 C   0  0  0  0  0  0  0  0  0  0  0  0
   -5.7199   -2.0026    0.7362 C   0  0  0  0  0  0  0  0  0  0  0  0
   -4.7347   -0.8731    0.4040 C   0  0  0  0  0  0  0  0  0  0  0  0
   -4.0393   -0.3263    1.6315 C   0  0  0  0  0  0  0  0  0  0  0  0
   -4.3254   -0.7008    2.7815 O   0  0  0  0  0  0  0  0  0  0  0  0
   -3.1376    0.6791    1.4660 N   0  0  0  0  0  0  0  0  0  0  0  0
   -2.3475    0.9564    0.2767 C   0  0  2  0  0  0  0  0  0  0  0  0
   -1.0745    0.0986    0.2513 C   0  0  0  0  0  0  0  0  0  0  0  0
   -0.6090   -0.4674    1.2453 O   0  0  0  0  0  0  0  0  0  0  0  0
   -0.4393    0.0848   -0.9746 N   0  0  0  0  0  0  0  0  0  0  0  0
   -1.9678    2.4332    0.2208 C   0  0  0  0  0  0  0  0  0  0  0  0
   -1.1089    2.8454    1.4005 C   0  0  0  0  0  0  0  0  0  0  0  0
   -1.2886    2.4458    2.5442 O   0  0  0  0  0  0  0  0  0  0  0  0
   -0.1259    3.7443    1.1138 N   0  0  0  0  0  0  0  0  0  0  0  0
    1.8275   -0.0069   -1.9288 C   0  0  2  0  0  0  0  0  0  0  0  0
    2.9454   -0.8553   -2.2363 O   0  0  0  0  0  0  0  0  0  0  0  0
    2.3171    1.1993   -1.1060 C   0  0  0  0  0  0  0  0  0  0  0  0
    3.3868    1.8439   -1.8728 N   0  0  0  0  0  0  0  0  0  0  0  0
    4.2569    3.1020   -1.2059 S   0  0  0  0  0  0  0  0  0  0  0  0
    3.3016    4.0603   -0.6961 O   0  0  0  0  0  0  0  0  0  0  0  0
    5.2494    3.4549   -2.2001 O   0  0  0  0  0  0  0  0  0  0  0  0
    5.1072    2.3712    0.1705 C   0  0  0  0  0  0  0  0  0  0  0  0
    4.5183    2.3928    1.4346 C   0  0  0  0  0  0  0  0  0  0  0  0
    5.1875    1.8314    2.5240 C   0  0  0  0  0  0  0  0  0  0  0  0
    6.4540    1.2706    2.3505 C   0  0  0  0  0  0  0  0  0  0  0  0
    7.0534    1.2764    1.0894 C   0  0  0  0  0  0  0  0  0  0  0  0
    6.3837    1.8367   -0.0020 C   0  0  0  0  0  0  0  0  0  0  0  0
    1.0943   -1.0832   -0.2203 H   0  0  0  0  0  0  0  0  0  0  0  0
    0.2026   -1.8163   -3.0470 H   0  0  0  0  0  0  0  0  0  0  0  0
    1.1765   -2.7726   -1.9371 H   0  0  0  0  0  0  0  0  0  0  0  0
   -0.1005   -3.0995    0.5092 H   0  0  0  0  0  0  0  0  0  0  0  0
   -2.2167   -3.9264    1.4632 H   0  0  0  0  0  0  0  0  0  0  0  0
   -4.1595   -3.3676   -2.3135 H   0  0  0  0  0  0  0  0  0  0  0  0
   -2.0422   -2.5024   -3.2823 H   0  0  0  0  0  0  0  0  0  0  0  0
   -5.8772   -3.9539    1.6142 H   0  0  0  0  0  0  0  0  0  0  0  0
   -4.3593   -3.1468    2.0116 H   0  0  0  0  0  0  0  0  0  0  0  0
   -6.3801   -1.6415    1.5349 H   0  0  0  0  0  0  0  0  0  0  0  0
   -6.3418   -2.2095   -0.1426 H   0  0  0  0  0  0  0  0  0  0  0  0
   -3.9946   -1.1895   -0.3309 H   0  0  0  0  0  0  0  0  0  0  0  0
   -5.2872   -0.0433   -0.0484 H   0  0  0  0  0  0  0  0  0  0  0  0
   -2.6971    0.9857    2.3345 H   0  0  0  0  0  0  0  0  0  0  0  0
   -2.9441    0.7071   -0.6068 H   0  0  0  0  0  0  0  0  0  0  0  0
   -0.9244    0.4597   -1.7810 H   0  0  0  0  0  0  0  0  0  0  0  0
   -2.8849    3.0297    0.2606 H   0  0  0  0  0  0  0  0  0  0  0  0
   -1.4509    2.6654   -0.7160 H   0  0  0  0  0  0  0  0  0  0  0  0
   -0.0698    4.2327    0.2311 H   0  0  0  0  0  0  0  0  0  0  0  0
    0.3929    4.1367    1.8919 H   0  0  0  0  0  0  0  0  0  0  0  0
    1.4519    0.3524   -2.8922 H   0  0  0  0  0  0  0  0  0  0  0  0
    3.3197   -1.1649   -1.3924 H   0  0  0  0  0  0  0  0  0  0  0  0
    2.7094    0.8559   -0.1462 H   0  0  0  0  0  0  0  0  0  0  0  0
    1.5044    1.9098   -0.9347 H   0  0  0  0  0  0  0  0  0  0  0  0
    3.9741    1.2038   -2.4092 H   0  0  0  0  0  0  0  0  0  0  0  0
    3.5363    2.8381    1.5659 H   0  0  0  0  0  0  0  0  0  0  0  0
    4.7205    1.8350    3.5067 H   0  0  0  0  0  0  0  0  0  0  0  0
    6.9764    0.8344    3.2002 H   0  0  0  0  0  0  0  0  0  0  0  0
    8.0440    0.8476    0.9541 H   0  0  0  0  0  0  0  0  0  0  0  0
    6.8574    1.8564   -0.9801 H   0  0  0  0  0  0  0  0  0  0  0  0
  1 19  1  0  0  0  0
  1 37  1  1  0  0  0
  2 39  1  0  0  0  0
  2  3  1  0  0  0  0
  2  1  1  0  0  0  0
  3  4  2  0  0  0  0
  4  5  1  0  0  0  0
  4 40  1  0  0  0  0
  5 41  1  0  0  0  0
  6  9  1  0  0  0  0
  6  5  2  0  0  0  0
  7  6  1  0  0  0  0
  8  7  2  0  0  0  0
  8  3  1  0  0  0  0
  9 10  1  0  0  0  0
 10 44  1  0  0  0  0
 10 45  1  0  0  0  0
 11 10  1  0  0  0  0
 11 46  1  0  0  0  0
 12 11  1  0  0  0  0
 12 13  1  0  0  0  0
 13 14  2  0  0  0  0
 15 13  1  0  0  0  0
 15 50  1  0  0  0  0
 16 51  1  6  0  0  0
 16 15  1  0  0  0  0
 17 16  1  0  0  0  0
 17 18  2  0  0  0  0
 19 17  1  0  0  0  0
 20 53  1  0  0  0  0
 20 16  1  0  0  0  0
 20 21  1  0  0  0  0
 21 22  2  0  0  0  0
 23 21  1  0  0  0  0
 23 56  1  0  0  0  0
 24 57  1  6  0  0  0
 24  1  1  0  0  0  0
 24 26  1  0  0  0  0
 25 24  1  0  0  0  0
 25 58  1  0  0  0  0
 26 60  1  0  0  0  0
 26 59  1  0  0  0  0
 27 28  1  0  0  0  0
 27 26  1  0  0  0  0
 28 29  2  0  0  0  0
 28 31  1  0  0  0  0
 30 28  2  0  0  0  0
 31 32  1  0  0  0  0
 32 62  1  0  0  0  0
 32 33  2  0  0  0  0
 33 63  1  0  0  0  0
 34 33  1  0  0  0  0
 34 64  1  0  0  0  0
 35 34  2  0  0  0  0
 36 31  2  0  0  0  0
 36 35  1  0  0  0  0
 38  2  1  0  0  0  0
 42  7  1  0  0  0  0
 43  8  1  0  0  0  0
 47 11  1  0  0  0  0
 48 12  1  0  0  0  0
 49 12  1  0  0  0  0
 52 19  1  0  0  0  0
 54 20  1  0  0  0  0
 55 23  1  0  0  0  0
 61 27  1  0  0  0  0
 65 35  1  0  0  0  0
 66 36  1  0  0  0  0
M  END
