-3.67271
 OpenBabel10231816213D

 45 47  0  0  0  0  0  0  0  0999 V2000
   -4.9070   -1.9578    1.4299 O   0  0  0  0  0  0  0  0  0  0  0  0
   -5.1125   -1.0970    0.3764 N   0  0  0  0  0  0  0  0  0  0  0  0
   -3.9055   -0.6189    0.0452 C   0  0  0  0  0  0  0  0  0  0  0  0
   -2.8855   -1.1411    0.9038 C   0  0  0  0  0  0  0  0  0  0  0  0
   -1.4437   -0.9253    0.9639 C   0  0  0  0  0  0  0  0  0  0  0  0
   -0.7375   -1.6477    1.6584 O   0  0  0  0  0  0  0  0  0  0  0  0
   -0.9606    0.1245    0.2017 N   0  0  0  0  0  0  0  0  0  0  0  0
    0.3727    0.4621    0.0804 C   0  0  0  0  0  0  0  0  0  0  0  0
    0.8169    1.4501   -0.7671 C   0  0  0  0  0  0  0  0  0  0  0  0
    2.1842    1.5230   -0.6604 N   0  0  0  0  0  0  0  0  0  0  0  0
    3.0099    2.4441   -1.4142 C   0  0  0  0  0  0  0  0  0  0  0  0
    2.6373    0.5941    0.2560 C   0  0  0  0  0  0  0  0  0  0  0  0
    1.5100   -0.0702    0.7222 C   0  0  0  0  0  0  0  0  0  0  0  0
    4.0207    0.3902    0.6195 C   0  0  0  0  0  0  0  0  0  0  0  0
    4.9724    1.0113    0.1640 O   0  0  0  0  0  0  0  0  0  0  0  0
    4.1183   -0.6065    1.5428 O   0  0  0  0  0  0  0  0  0  0  0  0
    5.4474   -0.9094    1.9801 C   0  0  0  0  0  0  0  0  0  0  0  0
    6.1277   -1.8386    0.9918 C   0  0  0  0  0  0  0  0  0  0  0  0
   -3.5866   -1.9934    1.7435 C   0  0  0  0  0  0  0  0  0  0  0  0
   -3.2340   -2.8881    2.8678 C   0  0  0  0  0  0  0  0  0  0  0  0
   -3.7776    0.2991   -1.0760 C   0  0  0  0  0  0  0  0  0  0  0  0
   -3.3108   -0.1629   -2.3130 C   0  0  0  0  0  0  0  0  0  0  0  0
   -3.1203    0.7326   -3.3672 C   0  0  0  0  0  0  0  0  0  0  0  0
   -3.3922    2.0890   -3.1895 C   0  0  0  0  0  0  0  0  0  0  0  0
   -3.8585    2.5535   -1.9596 C   0  0  0  0  0  0  0  0  0  0  0  0
   -4.0544    1.6612   -0.9035 C   0  0  0  0  0  0  0  0  0  0  0  0
   -1.5921    0.7006   -0.3320 H   0  0  0  0  0  0  0  0  0  0  0  0
    0.2801    2.0971   -1.4488 H   0  0  0  0  0  0  0  0  0  0  0  0
    3.6867    2.9597   -0.7295 H   0  0  0  0  0  0  0  0  0  0  0  0
    2.3718    3.1841   -1.9042 H   0  0  0  0  0  0  0  0  0  0  0  0
    3.5634    1.8743   -2.1650 H   0  0  0  0  0  0  0  0  0  0  0  0
    1.5283   -0.8626    1.4613 H   0  0  0  0  0  0  0  0  0  0  0  0
    6.0273    0.0074    2.1362 H   0  0  0  0  0  0  0  0  0  0  0  0
    5.3606   -1.4031    2.9531 H   0  0  0  0  0  0  0  0  0  0  0  0
    7.1242   -2.1153    1.3457 H   0  0  0  0  0  0  0  0  0  0  0  0
    6.2271   -1.3669    0.0089 H   0  0  0  0  0  0  0  0  0  0  0  0
    5.5355   -2.7483    0.8488 H   0  0  0  0  0  0  0  0  0  0  0  0
   -2.1567   -2.9640    3.0257 H   0  0  0  0  0  0  0  0  0  0  0  0
   -3.6791   -2.5219    3.7982 H   0  0  0  0  0  0  0  0  0  0  0  0
   -3.6083   -3.9005    2.6847 H   0  0  0  0  0  0  0  0  0  0  0  0
   -3.0933   -1.2186   -2.4631 H   0  0  0  0  0  0  0  0  0  0  0  0
   -2.7639    0.3716   -4.3293 H   0  0  0  0  0  0  0  0  0  0  0  0
   -3.2498    2.7840   -4.0142 H   0  0  0  0  0  0  0  0  0  0  0  0
   -4.0751    3.6109   -1.8259 H   0  0  0  0  0  0  0  0  0  0  0  0
   -4.4176    2.0338    0.0523 H   0  0  0  0  0  0  0  0  0  0  0  0
  1 19  1  0  0  0  0
  2  1  1  0  0  0  0
  3  2  2  0  0  0  0
  3  4  1  0  0  0  0
  4  5  1  0  0  0  0
  4 19  2  0  0  0  0
  5  6  2  0  0  0  0
  7  5  1  0  0  0  0
  8  7  1  0  0  0  0
  8 13  1  0  0  0  0
  9 10  1  0  0  0  0
  9  8  2  0  0  0  0
 10 12  1  0  0  0  0
 11 29  1  0  0  0  0
 11 10  1  0  0  0  0
 12 14  1  0  0  0  0
 12 13  2  0  0  0  0
 13 32  1  0  0  0  0
 14 16  1  0  0  0  0
 15 14  2  0  0  0  0
 16 17  1  0  0  0  0
 17 33  1  0  0  0  0
 17 34  1  0  0  0  0
 18 35  1  0  0  0  0
 18 17  1  0  0  0  0
 19 20  1  0  0  0  0
 20 38  1  0  0  0  0
 20 39  1  0  0  0  0
 21 26  1  0  0  0  0
 21  3  1  0  0  0  0
 22 21  2  0  0  0  0
 23 24  2  0  0  0  0
 23 22  1  0  0  0  0
 24 25  1  0  0  0  0
 25 44  1  0  0  0  0
 25 26  2  0  0  0  0
 26 45  1  0  0  0  0
 27  7  1  0  0  0  0
 28  9  1  0  0  0  0
 30 11  1  0  0  0  0
 31 11  1  0  0  0  0
 36 18  1  0  0  0  0
 37 18  1  0  0  0  0
 40 20  1  0  0  0  0
 41 22  1  0  0  0  0
 42 23  1  0  0  0  0
 43 24  1  0  0  0  0
M  END
