-7.95289
 OpenBabel10231816213D

 39 41  0  0  1  0  0  0  0  0999 V2000
   -2.5334   -1.6566    0.9886 N   0  0  0  0  0  0  0  0  0  0  0  0
   -1.2034   -1.6561    1.1618 C   0  0  0  0  0  0  0  0  0  0  0  0
   -0.3375   -0.7813    0.6331 N   0  0  0  0  0  0  0  0  0  0  0  0
   -0.7685    0.2016   -0.1923 C   0  0  0  0  0  0  0  0  0  0  0  0
   -2.1408    0.2772   -0.4538 C   0  0  0  0  0  0  0  0  0  0  0  0
   -2.9238   -0.6688    0.1664 C   0  0  0  0  0  0  0  0  0  0  0  0
   -4.2191   -0.4323   -0.1971 O   0  0  0  0  0  0  0  0  0  0  0  0
   -4.1390    0.6531   -1.0240 C   0  0  0  0  0  0  0  0  0  0  0  0
   -2.9141    1.1225   -1.2138 N   0  0  0  0  0  0  0  0  0  0  0  0
   -5.4127    1.1443   -1.5812 C   0  0  0  0  0  0  0  0  0  0  0  0
    0.1414    1.0787   -0.7390 N   0  0  0  0  0  0  0  0  0  0  0  0
    1.4851    1.2059   -0.1895 C   0  0  1  0  0  0  0  0  0  0  0  0
    1.4968    1.5926    1.2860 C   0  0  0  0  0  0  0  0  0  0  0  0
    0.7692    2.8668    1.5321 C   0  0  0  0  0  0  0  0  0  0  0  0
   -0.1365    3.0449    2.3415 O   0  0  0  0  0  0  0  0  0  0  0  0
    1.2601    3.8930    0.8061 O   0  0  0  0  0  0  0  0  0  0  0  0
    2.3120   -0.0414   -0.4989 C   0  0  0  0  0  0  0  0  0  0  0  0
    2.5988   -0.3488   -1.8357 C   0  0  0  0  0  0  0  0  0  0  0  0
    3.3422   -1.4809   -2.1694 C   0  0  0  0  0  0  0  0  0  0  0  0
    3.8045   -2.3301   -1.1659 C   0  0  0  0  0  0  0  0  0  0  0  0
    3.5162   -2.0501    0.1670 C   0  0  0  0  0  0  0  0  0  0  0  0
    2.7764   -0.9159    0.4976 C   0  0  0  0  0  0  0  0  0  0  0  0
   -0.6238   -2.7015    2.0566 C   0  0  0  0  0  0  0  0  0  0  0  0
   -5.8981    0.3578   -2.1673 H   0  0  0  0  0  0  0  0  0  0  0  0
   -5.2452    2.0102   -2.2284 H   0  0  0  0  0  0  0  0  0  0  0  0
   -6.0923    1.4364   -0.7745 H   0  0  0  0  0  0  0  0  0  0  0  0
   -0.2772    1.8963   -1.1668 H   0  0  0  0  0  0  0  0  0  0  0  0
    1.9504    2.0216   -0.7566 H   0  0  0  0  0  0  0  0  0  0  0  0
    2.5281    1.7040    1.6493 H   0  0  0  0  0  0  0  0  0  0  0  0
    1.0201    0.8191    1.9002 H   0  0  0  0  0  0  0  0  0  0  0  0
    0.7339    4.6800    1.0622 H   0  0  0  0  0  0  0  0  0  0  0  0
    2.2219    0.3056   -2.6162 H   0  0  0  0  0  0  0  0  0  0  0  0
    3.5560   -1.6941   -3.2120 H   0  0  0  0  0  0  0  0  0  0  0  0
    4.3862   -3.2114   -1.4208 H   0  0  0  0  0  0  0  0  0  0  0  0
    3.8637   -2.7106    0.9547 H   0  0  0  0  0  0  0  0  0  0  0  0
    2.5451   -0.7364    1.5446 H   0  0  0  0  0  0  0  0  0  0  0  0
   -1.3227   -3.5376    2.1382 H   0  0  0  0  0  0  0  0  0  0  0  0
    0.3312   -3.0668    1.6642 H   0  0  0  0  0  0  0  0  0  0  0  0
   -0.4511   -2.2908    3.0530 H   0  0  0  0  0  0  0  0  0  0  0  0
  1  2  1  0  0  0  0
  2 23  1  0  0  0  0
  3  2  2  0  0  0  0
  4  3  1  0  0  0  0
  5  4  2  0  0  0  0
  5  6  1  0  0  0  0
  6  1  2  0  0  0  0
  7  6  1  0  0  0  0
  8  7  1  0  0  0  0
  9  8  2  0  0  0  0
  9  5  1  0  0  0  0
 10  8  1  0  0  0  0
 10 26  1  0  0  0  0
 11  4  1  0  0  0  0
 11 12  1  0  0  0  0
 12 28  1  6  0  0  0
 12 13  1  0  0  0  0
 13 14  1  0  0  0  0
 13 29  1  0  0  0  0
 13 30  1  0  0  0  0
 14 15  2  0  0  0  0
 16 31  1  0  0  0  0
 16 14  1  0  0  0  0
 17 12  1  0  0  0  0
 17 22  2  0  0  0  0
 18 17  1  0  0  0  0
 19 18  2  0  0  0  0
 19 20  1  0  0  0  0
 20 21  2  0  0  0  0
 21 22  1  0  0  0  0
 21 35  1  0  0  0  0
 22 36  1  0  0  0  0
 23 37  1  0  0  0  0
 23 39  1  0  0  0  0
 24 10  1  0  0  0  0
 25 10  1  0  0  0  0
 27 11  1  0  0  0  0
 32 18  1  0  0  0  0
 33 19  1  0  0  0  0
 34 20  1  0  0  0  0
 38 23  1  0  0  0  0
M  END
