73.5225
 OpenBabel10231816213D

 50 52  0  0  1  0  0  0  0  0999 V2000
    6.2759    2.5138   -0.8588 O   0  0  0  0  0  0  0  0  0  0  0  0
    6.0670    1.2490   -0.4350 C   0  0  0  0  0  0  0  0  0  0  0  0
    6.9540    0.5740    0.0664 O   0  0  0  0  0  0  0  0  0  0  0  0
    4.6393    0.7780   -0.6388 C   0  0  1  0  0  0  0  0  0  0  0  0
    4.5377   -0.7535   -0.5752 C   0  0  0  0  0  0  0  0  0  0  0  0
    3.0868   -1.2245   -0.7235 C   0  0  0  0  0  0  0  0  0  0  0  0
    2.1371   -0.5922    0.3354 C   0  0  2  0  0  0  0  0  0  0  0  0
    2.2888    0.9455    0.2440 C   0  0  0  0  0  0  0  0  0  0  0  0
    3.7354    1.4030    0.4237 C   0  0  0  0  0  0  0  0  0  0  0  0
    2.5456   -1.0256    1.6984 C   0  0  0  0  0  0  0  0  0  0  0  0
    2.8801   -1.3696    2.7586 N   0  0  0  0  0  0  0  0  0  0  0  0
    0.6966   -1.0624    0.0845 C   0  0  0  0  0  0  0  0  0  0  0  0
    0.3690   -2.4155    0.2911 C   0  0  0  0  0  0  0  0  0  0  0  0
   -0.9312   -2.8869    0.0789 C   0  0  0  0  0  0  0  0  0  0  0  0
   -1.9375   -2.0159   -0.3389 C   0  0  0  0  0  0  0  0  0  0  0  0
   -3.2235   -2.3777   -0.6197 O   0  0  0  0  0  0  0  0  0  0  0  0
   -3.5742   -3.7340   -0.4086 C   0  0  0  0  0  0  0  0  0  0  0  0
   -1.6305   -0.6636   -0.5128 C   0  0  0  0  0  0  0  0  0  0  0  0
   -0.3296   -0.1963   -0.3227 C   0  0  0  0  0  0  0  0  0  0  0  0
   -2.5373    0.2451   -0.9952 O   0  0  0  0  0  0  0  0  0  0  0  0
   -3.5353    0.6348   -0.0433 C   0  0  0  0  0  0  0  0  0  0  0  0
   -4.6005    1.4521   -0.7976 C   0  0  0  0  0  0  0  0  0  0  0  0
   -4.8968    2.6904    0.0511 C   0  0  0  0  0  0  0  0  0  0  0  0
   -4.2060    2.4433    1.3832 C   0  0  0  0  0  0  0  0  0  0  0  0
   -2.9941    1.6102    1.0018 C   0  0  0  0  0  0  0  0  0  0  0  0
    5.4978    2.9499   -1.2515 H   0  0  0  0  0  0  0  0  0  0  0  0
    4.3197    1.0933   -1.6393 H   0  0  0  0  0  0  0  0  0  0  0  0
    5.1551   -1.2040   -1.3659 H   0  0  0  0  0  0  0  0  0  0  0  0
    4.9516   -1.1212    0.3695 H   0  0  0  0  0  0  0  0  0  0  0  0
    2.7350   -0.9477   -1.7314 H   0  0  0  0  0  0  0  0  0  0  0  0
    3.0599   -2.3192   -0.6832 H   0  0  0  0  0  0  0  0  0  0  0  0
    1.6588    1.4444    0.9886 H   0  0  0  0  0  0  0  0  0  0  0  0
    1.9549    1.2954   -0.7468 H   0  0  0  0  0  0  0  0  0  0  0  0
    4.0906    1.1335    1.4267 H   0  0  0  0  0  0  0  0  0  0  0  0
    3.7808    2.5019    0.3729 H   0  0  0  0  0  0  0  0  0  0  0  0
    1.1239   -3.1222    0.6336 H   0  0  0  0  0  0  0  0  0  0  0  0
   -1.1126   -3.9444    0.2466 H   0  0  0  0  0  0  0  0  0  0  0  0
   -4.6344   -3.8298   -0.6509 H   0  0  0  0  0  0  0  0  0  0  0  0
   -3.4390   -4.0199    0.6406 H   0  0  0  0  0  0  0  0  0  0  0  0
   -3.0109   -4.3961   -1.0744 H   0  0  0  0  0  0  0  0  0  0  0  0
   -0.1595    0.8616   -0.4954 H   0  0  0  0  0  0  0  0  0  0  0  0
   -4.0154   -0.2250    0.4378 H   0  0  0  0  0  0  0  0  0  0  0  0
   -4.2512    1.7450   -1.7948 H   0  0  0  0  0  0  0  0  0  0  0  0
   -5.5064    0.8543   -0.9461 H   0  0  0  0  0  0  0  0  0  0  0  0
   -5.9703    2.8698    0.1702 H   0  0  0  0  0  0  0  0  0  0  0  0
   -4.4743    3.5792   -0.4338 H   0  0  0  0  0  0  0  0  0  0  0  0
   -4.8664    1.8773    2.0503 H   0  0  0  0  0  0  0  0  0  0  0  0
   -3.9328    3.3737    1.8908 H   0  0  0  0  0  0  0  0  0  0  0  0
   -2.5670    1.0878    1.8639 H   0  0  0  0  0  0  0  0  0  0  0  0
   -2.2050    2.2408    0.5748 H   0  0  0  0  0  0  0  0  0  0  0  0
  1  2  1  0  0  0  0
  2  3  2  0  0  0  0
  4 27  1  6  0  0  0
  4  5  1  0  0  0  0
  4  2  1  0  0  0  0
  4  9  1  0  0  0  0
  5 29  1  0  0  0  0
  6 31  1  0  0  0  0
  6  5  1  0  0  0  0
  6  7  1  0  0  0  0
  7 12  1  6  0  0  0
  7 10  1  0  0  0  0
  8  7  1  0  0  0  0
  8  9  1  0  0  0  0
  8 32  1  0  0  0  0
  9 34  1  0  0  0  0
 10 11  3  0  0  0  0
 12 13  1  0  0  0  0
 13 36  1  0  0  0  0
 14 37  1  0  0  0  0
 14 13  2  0  0  0  0
 15 14  1  0  0  0  0
 16 17  1  0  0  0  0
 16 15  1  0  0  0  0
 17 39  1  0  0  0  0
 18 15  2  0  0  0  0
 18 19  1  0  0  0  0
 19 12  2  0  0  0  0
 20 18  1  0  0  0  0
 20 21  1  0  0  0  0
 21 42  1  0  0  0  0
 21 25  1  0  0  0  0
 22 21  1  0  0  0  0
 22 23  1  0  0  0  0
 23 45  1  0  0  0  0
 23 24  1  0  0  0  0
 24 48  1  0  0  0  0
 24 47  1  0  0  0  0
 25 24  1  0  0  0  0
 25 49  1  0  0  0  0
 26  1  1  0  0  0  0
 28  5  1  0  0  0  0
 30  6  1  0  0  0  0
 33  8  1  0  0  0  0
 35  9  1  0  0  0  0
 38 17  1  0  0  0  0
 40 17  1  0  0  0  0
 41 19  1  0  0  0  0
 43 22  1  0  0  0  0
 44 22  1  0  0  0  0
 46 23  1  0  0  0  0
 50 25  1  0  0  0  0
M  END
