65.5012
 OpenBabel10231816213D

 50 52  0  0  1  0  0  0  0  0999 V2000
    6.4573    1.0364   -1.3123 O   0  0  0  0  0  0  0  0  0  0  0  0
    6.0321    1.4524   -0.1069 C   0  0  0  0  0  0  0  0  0  0  0  0
    6.7679    2.0661    0.6473 O   0  0  0  0  0  0  0  0  0  0  0  0
    4.6184    1.0333    0.2094 C   0  0  1  0  0  0  0  0  0  0  0  0
    3.6406    1.4020   -0.9087 C   0  0  0  0  0  0  0  0  0  0  0  0
    2.2203    0.9658   -0.5471 C   0  0  0  0  0  0  0  0  0  0  0  0
    2.1099   -0.5492   -0.2613 C   0  0  2  0  0  0  0  0  0  0  0  0
    3.1264   -0.8931    0.8634 C   0  0  0  0  0  0  0  0  0  0  0  0
    4.5584   -0.4639    0.5130 C   0  0  0  0  0  0  0  0  0  0  0  0
    2.4640   -1.2896   -1.4913 C   0  0  0  0  0  0  0  0  0  0  0  0
    2.7776   -1.8983   -2.4435 N   0  0  0  0  0  0  0  0  0  0  0  0
    0.6991   -0.9652    0.1695 C   0  0  0  0  0  0  0  0  0  0  0  0
    0.4059   -2.3333    0.3188 C   0  0  0  0  0  0  0  0  0  0  0  0
   -0.8589   -2.7639    0.7232 C   0  0  0  0  0  0  0  0  0  0  0  0
   -1.8667   -1.8332    0.9760 C   0  0  0  0  0  0  0  0  0  0  0  0
   -3.1247   -2.1325    1.4044 O   0  0  0  0  0  0  0  0  0  0  0  0
   -3.4492   -3.4995    1.5644 C   0  0  0  0  0  0  0  0  0  0  0  0
   -1.6028   -0.4741    0.7900 C   0  0  0  0  0  0  0  0  0  0  0  0
   -0.3320   -0.0428    0.4099 C   0  0  0  0  0  0  0  0  0  0  0  0
   -2.5327    0.4928    1.0851 O   0  0  0  0  0  0  0  0  0  0  0  0
   -3.5646    0.6156    0.0972 C   0  0  0  0  0  0  0  0  0  0  0  0
   -4.6772    1.4952    0.6723 C   0  0  0  0  0  0  0  0  0  0  0  0
   -5.3976    2.0288   -0.5575 C   0  0  0  0  0  0  0  0  0  0  0  0
   -4.2745    2.3037   -1.5559 C   0  0  0  0  0  0  0  0  0  0  0  0
   -3.1056    1.3944   -1.1443 C   0  0  0  0  0  0  0  0  0  0  0  0
    7.3876    1.3374   -1.3841 H   0  0  0  0  0  0  0  0  0  0  0  0
    4.3309    1.5856    1.1133 H   0  0  0  0  0  0  0  0  0  0  0  0
    3.6547    2.4828   -1.0902 H   0  0  0  0  0  0  0  0  0  0  0  0
    3.9430    0.9285   -1.8509 H   0  0  0  0  0  0  0  0  0  0  0  0
    1.9175    1.5232    0.3508 H   0  0  0  0  0  0  0  0  0  0  0  0
    1.5318    1.2507   -1.3535 H   0  0  0  0  0  0  0  0  0  0  0  0
    3.1227   -1.9659    1.0957 H   0  0  0  0  0  0  0  0  0  0  0  0
    2.8266   -0.3747    1.7890 H   0  0  0  0  0  0  0  0  0  0  0  0
    5.2375   -0.7068    1.3391 H   0  0  0  0  0  0  0  0  0  0  0  0
    4.9165   -1.0353   -0.3537 H   0  0  0  0  0  0  0  0  0  0  0  0
    1.1710   -3.0821    0.1139 H   0  0  0  0  0  0  0  0  0  0  0  0
   -1.0232   -3.8305    0.8362 H   0  0  0  0  0  0  0  0  0  0  0  0
   -2.8310   -3.9659    2.3375 H   0  0  0  0  0  0  0  0  0  0  0  0
   -3.3598   -4.0434    0.6185 H   0  0  0  0  0  0  0  0  0  0  0  0
   -4.4921   -3.5310    1.8857 H   0  0  0  0  0  0  0  0  0  0  0  0
   -0.1776    1.0263    0.3005 H   0  0  0  0  0  0  0  0  0  0  0  0
   -3.9838   -0.3551   -0.1972 H   0  0  0  0  0  0  0  0  0  0  0  0
   -5.3401    0.9377    1.3451 H   0  0  0  0  0  0  0  0  0  0  0  0
   -4.2399    2.3125    1.2587 H   0  0  0  0  0  0  0  0  0  0  0  0
   -6.0750    1.2645   -0.9557 H   0  0  0  0  0  0  0  0  0  0  0  0
   -6.0045    2.9176   -0.3446 H   0  0  0  0  0  0  0  0  0  0  0  0
   -4.6006    2.1260   -2.5877 H   0  0  0  0  0  0  0  0  0  0  0  0
   -3.9632    3.3557   -1.5072 H   0  0  0  0  0  0  0  0  0  0  0  0
   -2.8268    0.7021   -1.9490 H   0  0  0  0  0  0  0  0  0  0  0  0
   -2.2139    1.9921   -0.9255 H   0  0  0  0  0  0  0  0  0  0  0  0
  1  2  1  0  0  0  0
  2  4  1  0  0  0  0
  2  3  2  0  0  0  0
  4  9  1  0  0  0  0
  4 27  1  1  0  0  0
  5  6  1  0  0  0  0
  5  4  1  0  0  0  0
  6  7  1  0  0  0  0
  6 30  1  0  0  0  0
  7 10  1  6  0  0  0
  7 12  1  0  0  0  0
  7  8  1  0  0  0  0
  8 32  1  0  0  0  0
  8 33  1  0  0  0  0
  9  8  1  0  0  0  0
  9 34  1  0  0  0  0
 11 10  3  0  0  0  0
 12 13  2  0  0  0  0
 12 19  1  0  0  0  0
 13 14  1  0  0  0  0
 14 37  1  0  0  0  0
 14 15  2  0  0  0  0
 15 16  1  0  0  0  0
 16 17  1  0  0  0  0
 17 40  1  0  0  0  0
 17 38  1  0  0  0  0
 18 15  1  0  0  0  0
 18 20  1  0  0  0  0
 19 18  2  0  0  0  0
 21 22  1  0  0  0  0
 21 20  1  0  0  0  0
 22 44  1  0  0  0  0
 22 43  1  0  0  0  0
 23 46  1  0  0  0  0
 23 22  1  0  0  0  0
 24 48  1  0  0  0  0
 24 25  1  0  0  0  0
 24 23  1  0  0  0  0
 25 50  1  0  0  0  0
 25 21  1  0  0  0  0
 26  1  1  0  0  0  0
 28  5  1  0  0  0  0
 29  5  1  0  0  0  0
 31  6  1  0  0  0  0
 35  9  1  0  0  0  0
 36 13  1  0  0  0  0
 39 17  1  0  0  0  0
 41 19  1  0  0  0  0
 42 21  1  0  0  0  0
 45 23  1  0  0  0  0
 47 24  1  0  0  0  0
 49 25  1  0  0  0  0
M  END
