41.8536
 OpenBabel10231816213D

 61 65  0  0  0  0  0  0  0  0999 V2000
    9.0371    1.2463    1.5118 N   0  0  0  0  0  0  0  0  0  0  0  0
    8.3313    2.0220    0.6643 C   0  0  0  0  0  0  0  0  0  0  0  0
    7.0925    1.6766    0.1492 C   0  0  0  0  0  0  0  0  0  0  0  0
    6.5153    0.4500    0.4907 C   0  0  0  0  0  0  0  0  0  0  0  0
    7.2443   -0.3613    1.3672 C   0  0  0  0  0  0  0  0  0  0  0  0
    8.4690    0.0712    1.8473 C   0  0  0  0  0  0  0  0  0  0  0  0
    5.2835    0.0584   -0.0122 N   0  0  0  0  0  0  0  0  0  0  0  0
    4.7398    0.6571   -1.2318 C   0  0  0  0  0  0  0  0  0  0  0  0
    3.9201   -0.3869   -1.9884 C   0  0  0  0  0  0  0  0  0  0  0  0
    2.7138   -0.8600   -1.1566 C   0  0  0  0  0  0  0  0  0  0  0  0
    3.0366   -0.8069    0.3454 C   0  0  0  0  0  0  0  0  0  0  0  0
    4.5225   -1.0128    0.6181 C   0  0  0  0  0  0  0  0  0  0  0  0
    1.5134    0.0117   -1.4350 C   0  0  0  0  0  0  0  0  0  0  0  0
    1.6733    1.1905   -1.8170 O   0  0  0  0  0  0  0  0  0  0  0  0
    0.2538   -0.4724   -1.2453 N   0  0  0  0  0  0  0  0  0  0  0  0
   -0.8675    0.4608   -1.4603 C   0  0  0  0  0  0  0  0  0  0  0  0
   -2.2069   -0.1904   -1.1507 C   0  0  0  0  0  0  0  0  0  0  0  0
   -2.2055   -0.8309    0.1890 N   0  0  0  0  0  0  0  0  0  0  0  0
   -1.0351   -1.7038    0.4691 C   0  0  0  0  0  0  0  0  0  0  0  0
   -0.0913   -1.8047   -0.7255 C   0  0  0  0  0  0  0  0  0  0  0  0
   -2.6025    0.1876    1.4862 S   0  0  0  0  0  0  0  0  0  0  0  0
   -1.8516    1.4226    1.3465 O   0  0  0  0  0  0  0  0  0  0  0  0
   -2.5331   -0.6019    2.6868 O   0  0  0  0  0  0  0  0  0  0  0  0
   -4.2999    0.5269    1.1146 C   0  0  0  0  0  0  0  0  0  0  0  0
   -5.1880   -0.5131    0.8214 C   0  0  0  0  0  0  0  0  0  0  0  0
   -6.5224   -0.2192    0.5031 C   0  0  0  0  0  0  0  0  0  0  0  0
   -6.9543    1.1321    0.4552 C   0  0  0  0  0  0  0  0  0  0  0  0
   -6.0306    2.1565    0.7172 C   0  0  0  0  0  0  0  0  0  0  0  0
   -4.7041    1.8533    1.0313 C   0  0  0  0  0  0  0  0  0  0  0  0
   -8.2915    1.4215    0.1438 C   0  0  0  0  0  0  0  0  0  0  0  0
   -9.1916    0.3843   -0.1181 C   0  0  0  0  0  0  0  0  0  0  0  0
   -8.7737   -0.9410   -0.0749 C   0  0  0  0  0  0  0  0  0  0  0  0
   -7.4453   -1.2435    0.2337 C   0  0  0  0  0  0  0  0  0  0  0  0
  -10.8284    0.7500   -0.4992 Cl  0  0  0  0  0  0  0  0  0  0  0  0
    8.7968    2.9685    0.4046 H   0  0  0  0  0  0  0  0  0  0  0  0
    6.5840    2.3791   -0.5007 H   0  0  0  0  0  0  0  0  0  0  0  0
    6.8811   -1.3341    1.6760 H   0  0  0  0  0  0  0  0  0  0  0  0
    9.0464   -0.5449    2.5304 H   0  0  0  0  0  0  0  0  0  0  0  0
    5.5556    0.9922   -1.8791 H   0  0  0  0  0  0  0  0  0  0  0  0
    4.1196    1.5251   -0.9829 H   0  0  0  0  0  0  0  0  0  0  0  0
    4.5600   -1.2501   -2.2140 H   0  0  0  0  0  0  0  0  0  0  0  0
    3.5945    0.0291   -2.9495 H   0  0  0  0  0  0  0  0  0  0  0  0
    2.4802   -1.8852   -1.4755 H   0  0  0  0  0  0  0  0  0  0  0  0
    2.4455   -1.5431    0.8955 H   0  0  0  0  0  0  0  0  0  0  0  0
    2.7499    0.1799    0.7357 H   0  0  0  0  0  0  0  0  0  0  0  0
    4.6774   -0.9925    1.7014 H   0  0  0  0  0  0  0  0  0  0  0  0
    4.8631   -1.9839    0.2395 H   0  0  0  0  0  0  0  0  0  0  0  0
   -0.8341    0.8170   -2.4891 H   0  0  0  0  0  0  0  0  0  0  0  0
   -0.7100    1.3367   -0.8143 H   0  0  0  0  0  0  0  0  0  0  0  0
   -3.0161    0.5373   -1.2007 H   0  0  0  0  0  0  0  0  0  0  0  0
   -2.4255   -0.9657   -1.8918 H   0  0  0  0  0  0  0  0  0  0  0  0
   -0.4846   -1.3052    1.3291 H   0  0  0  0  0  0  0  0  0  0  0  0
   -1.4107   -2.6974    0.7369 H   0  0  0  0  0  0  0  0  0  0  0  0
    0.7986   -2.3587   -0.4423 H   0  0  0  0  0  0  0  0  0  0  0  0
   -0.5719   -2.3696   -1.5368 H   0  0  0  0  0  0  0  0  0  0  0  0
   -4.8415   -1.5451    0.8495 H   0  0  0  0  0  0  0  0  0  0  0  0
   -6.3361    3.2004    0.6849 H   0  0  0  0  0  0  0  0  0  0  0  0
   -3.9909    2.6567    1.2260 H   0  0  0  0  0  0  0  0  0  0  0  0
   -8.6398    2.4530    0.1039 H   0  0  0  0  0  0  0  0  0  0  0  0
   -9.4830   -1.7444   -0.2805 H   0  0  0  0  0  0  0  0  0  0  0  0
   -7.1314   -2.2857    0.2667 H   0  0  0  0  0  0  0  0  0  0  0  0
  1  6  1  0  0  0  0
  2  1  2  0  0  0  0
  3  4  2  0  0  0  0
  3  2  1  0  0  0  0
  4  5  1  0  0  0  0
  5 37  1  0  0  0  0
  5  6  2  0  0  0  0
  6 38  1  0  0  0  0
  7  4  1  0  0  0  0
  7 12  1  0  0  0  0
  8 40  1  0  0  0  0
  8  7  1  0  0  0  0
  9  8  1  0  0  0  0
  9 10  1  0  0  0  0
 10 11  1  0  0  0  0
 11 12  1  0  0  0  0
 11 45  1  0  0  0  0
 11 44  1  0  0  0  0
 12 46  1  0  0  0  0
 13 15  1  0  0  0  0
 13 10  1  0  0  0  0
 14 13  2  0  0  0  0
 15 20  1  0  0  0  0
 16 15  1  0  0  0  0
 16 17  1  0  0  0  0
 16 49  1  0  0  0  0
 17 18  1  0  0  0  0
 18 19  1  0  0  0  0
 18 21  1  0  0  0  0
 19 53  1  0  0  0  0
 19 52  1  0  0  0  0
 20 54  1  0  0  0  0
 20 19  1  0  0  0  0
 21 23  2  0  0  0  0
 22 21  2  0  0  0  0
 24 21  1  0  0  0  0
 25 56  1  0  0  0  0
 25 24  2  0  0  0  0
 26 25  1  0  0  0  0
 27 26  1  0  0  0  0
 27 28  1  0  0  0  0
 28 29  2  0  0  0  0
 29 24  1  0  0  0  0
 29 58  1  0  0  0  0
 30 27  2  0  0  0  0
 31 32  2  0  0  0  0
 31 30  1  0  0  0  0
 32 33  1  0  0  0  0
 33 61  1  0  0  0  0
 33 26  2  0  0  0  0
 34 31  1  0  0  0  0
 35  2  1  0  0  0  0
 36  3  1  0  0  0  0
 39  8  1  0  0  0  0
 41  9  1  0  0  0  0
 42  9  1  0  0  0  0
 43 10  1  0  0  0  0
 47 12  1  0  0  0  0
 48 16  1  0  0  0  0
 50 17  1  0  0  0  0
 51 17  1  0  0  0  0
 55 20  1  0  0  0  0
 57 28  1  0  0  0  0
 59 30  1  0  0  0  0
 60 32  1  0  0  0  0
M  END
