72.1046
 OpenBabel10231816213D

 44 47  0  0  1  0  0  0  0  0999 V2000
   -0.3055   -5.3645   -1.0106 Cl  0  0  0  0  0  0  0  0  0  0  0  0
   -0.9095   -3.7626   -0.9230 C   0  0  0  0  0  0  0  0  0  0  0  0
   -0.5588   -2.9277    0.1204 C   0  0  0  0  0  0  0  0  0  0  0  0
   -0.9836   -1.6473    0.2301 N   0  0  0  0  0  0  0  0  0  0  0  0
   -1.8171   -1.1613   -0.7200 C   0  0  0  0  0  0  0  0  0  0  0  0
   -2.2327    0.1662   -0.5521 N   0  0  0  0  0  0  0  0  0  0  0  0
   -3.2014    0.8554   -1.2684 C   0  0  0  0  0  0  0  0  0  0  0  0
   -3.8581    0.4909   -2.2269 O   0  0  0  0  0  0  0  0  0  0  0  0
   -3.3489    2.1632   -0.6127 C   0  0  0  0  0  0  0  0  0  0  0  0
   -4.2330    3.1260   -0.9408 N   0  0  0  0  0  0  0  0  0  0  0  0
   -4.1690    4.2036   -0.1195 C   0  0  0  0  0  0  0  0  0  0  0  0
   -3.2809    4.2907    0.9574 C   0  0  0  0  0  0  0  0  0  0  0  0
   -2.4023    3.3055    1.2714 N   0  0  0  0  0  0  0  0  0  0  0  0
   -2.4692    2.2365    0.4472 C   0  0  0  0  0  0  0  0  0  0  0  0
   -1.6502    0.9772    0.5117 C   0  0  2  0  0  0  0  0  0  0  0  0
   -0.3078    1.2801    0.1411 O   0  0  0  0  0  0  0  0  0  0  0  0
    0.5841    1.2647    1.1609 C   0  0  0  0  0  0  0  0  0  0  0  0
    0.2789    1.1445    2.3385 O   0  0  0  0  0  0  0  0  0  0  0  0
    1.8949    1.3502    0.7018 N   0  0  0  0  0  0  0  0  0  0  0  0
    2.2207    0.9825   -0.6770 C   0  0  0  0  0  0  0  0  0  0  0  0
    2.4707   -0.5377   -0.7516 C   0  0  0  0  0  0  0  0  0  0  0  0
    3.5557   -0.9377    0.1744 N   0  0  0  0  0  0  0  0  0  0  0  0
    3.2322   -0.5226    1.5624 C   0  0  0  0  0  0  0  0  0  0  0  0
    2.9563    0.9959    1.6402 C   0  0  0  0  0  0  0  0  0  0  0  0
    3.8027   -2.3728    0.1024 C   0  0  0  0  0  0  0  0  0  0  0  0
   -2.2252   -1.9476   -1.7932 C   0  0  0  0  0  0  0  0  0  0  0  0
   -1.7596   -3.2629   -1.8973 C   0  0  0  0  0  0  0  0  0  0  0  0
    0.1058   -3.2570    0.9127 H   0  0  0  0  0  0  0  0  0  0  0  0
   -4.8583    5.0093   -0.3412 H   0  0  0  0  0  0  0  0  0  0  0  0
   -3.2580    5.1643    1.6007 H   0  0  0  0  0  0  0  0  0  0  0  0
   -1.7778    0.4716    1.4764 H   0  0  0  0  0  0  0  0  0  0  0  0
    1.4256    1.2745   -1.3691 H   0  0  0  0  0  0  0  0  0  0  0  0
    3.1265    1.5286   -0.9679 H   0  0  0  0  0  0  0  0  0  0  0  0
    1.5479   -1.0698   -0.4967 H   0  0  0  0  0  0  0  0  0  0  0  0
    2.7317   -0.8055   -1.7808 H   0  0  0  0  0  0  0  0  0  0  0  0
    2.3518   -1.0705    1.9253 H   0  0  0  0  0  0  0  0  0  0  0  0
    4.0708   -0.7620    2.2258 H   0  0  0  0  0  0  0  0  0  0  0  0
    2.6878    1.2841    2.6617 H   0  0  0  0  0  0  0  0  0  0  0  0
    3.8562    1.5575    1.3596 H   0  0  0  0  0  0  0  0  0  0  0  0
    2.9295   -2.9622    0.4020 H   0  0  0  0  0  0  0  0  0  0  0  0
    4.0821   -2.6593   -0.9173 H   0  0  0  0  0  0  0  0  0  0  0  0
    4.6448   -2.6444    0.7478 H   0  0  0  0  0  0  0  0  0  0  0  0
   -2.8849   -1.5700   -2.5669 H   0  0  0  0  0  0  0  0  0  0  0  0
   -2.0646   -3.8777   -2.7393 H   0  0  0  0  0  0  0  0  0  0  0  0
  1  2  1  0  0  0  0
  2  3  2  0  0  0  0
  3  4  1  0  0  0  0
  3 28  1  0  0  0  0
  5  6  1  0  0  0  0
  5  4  2  0  0  0  0
  6 15  1  0  0  0  0
  7  9  1  0  0  0  0
  7  6  1  0  0  0  0
  8  7  2  0  0  0  0
  9 14  1  0  0  0  0
 10  9  2  0  0  0  0
 10 11  1  0  0  0  0
 11 12  2  0  0  0  0
 12 13  1  0  0  0  0
 12 30  1  0  0  0  0
 14 15  1  0  0  0  0
 14 13  2  0  0  0  0
 15 31  1  1  0  0  0
 16 15  1  0  0  0  0
 16 17  1  0  0  0  0
 17 18  2  0  0  0  0
 19 17  1  0  0  0  0
 19 24  1  0  0  0  0
 20 19  1  0  0  0  0
 21 20  1  0  0  0  0
 21 34  1  0  0  0  0
 21 22  1  0  0  0  0
 22 23  1  0  0  0  0
 23 24  1  0  0  0  0
 23 36  1  0  0  0  0
 23 37  1  0  0  0  0
 24 38  1  0  0  0  0
 25 22  1  0  0  0  0
 25 40  1  0  0  0  0
 25 42  1  0  0  0  0
 26  5  1  0  0  0  0
 27 26  2  0  0  0  0
 27  2  1  0  0  0  0
 29 11  1  0  0  0  0
 32 20  1  0  0  0  0
 33 20  1  0  0  0  0
 35 21  1  0  0  0  0
 39 24  1  0  0  0  0
 41 25  1  0  0  0  0
 43 26  1  0  0  0  0
 44 27  1  0  0  0  0
M  END
