-57.0499
 OpenBabel10231816213D

 39 40  0  0  0  0  0  0  0  0999 V2000
    1.6433    1.2729    0.0153 S   0  0  0  0  0  0  0  0  0  0  0  0
    2.0159    2.1660   -1.0678 O   0  0  0  0  0  0  0  0  0  0  0  0
    0.4732    1.5511    0.8161 O   0  0  0  0  0  0  0  0  0  0  0  0
    2.9691    1.2370    1.0040 N   0  0  0  0  0  0  0  0  0  0  0  0
    3.0061    0.5918    2.2429 C   0  0  0  0  0  0  0  0  0  0  0  0
    2.1162   -0.1490    2.6282 O   0  0  0  0  0  0  0  0  0  0  0  0
    4.2854    0.8448    3.0013 C   0  0  0  0  0  0  0  0  0  0  0  0
    4.3010    0.1256    4.3341 C   0  0  0  0  0  0  0  0  0  0  0  0
    1.4956   -0.3194   -0.7041 C   0  0  0  0  0  0  0  0  0  0  0  0
    0.3423   -0.6668   -1.4087 C   0  0  0  0  0  0  0  0  0  0  0  0
   -0.7476    0.2097   -1.5464 N   0  0  0  0  0  0  0  0  0  0  0  0
   -2.1022   -0.0348   -1.2569 C   0  0  0  0  0  0  0  0  0  0  0  0
   -3.0303    0.9385   -1.6386 C   0  0  0  0  0  0  0  0  0  0  0  0
   -4.4043    0.7316   -1.4730 C   0  0  0  0  0  0  0  0  0  0  0  0
   -4.8479   -0.4802   -0.9258 C   0  0  0  0  0  0  0  0  0  0  0  0
   -3.9332   -1.4519   -0.5284 C   0  0  0  0  0  0  0  0  0  0  0  0
   -2.5689   -1.2247   -0.6903 C   0  0  0  0  0  0  0  0  0  0  0  0
   -5.3871    1.7826   -1.9077 C   0  0  0  0  0  0  0  0  0  0  0  0
   -4.8039    2.9645   -2.2560 F   0  0  0  0  0  0  0  0  0  0  0  0
   -6.2922    2.0866   -0.9375 F   0  0  0  0  0  0  0  0  0  0  0  0
   -6.1125    1.3927   -2.9914 F   0  0  0  0  0  0  0  0  0  0  0  0
    0.2677   -1.9591   -1.9454 C   0  0  0  0  0  0  0  0  0  0  0  0
    1.3296   -2.8287   -1.7768 C   0  0  0  0  0  0  0  0  0  0  0  0
    2.4602   -2.4968   -1.1233 N   0  0  0  0  0  0  0  0  0  0  0  0
    2.5172   -1.2475   -0.6010 C   0  0  0  0  0  0  0  0  0  0  0  0
    3.7162    1.8499    0.6946 H   0  0  0  0  0  0  0  0  0  0  0  0
    5.1196    0.4969    2.3811 H   0  0  0  0  0  0  0  0  0  0  0  0
    4.3943    1.9243    3.1530 H   0  0  0  0  0  0  0  0  0  0  0  0
    5.2426    0.3137    4.8569 H   0  0  0  0  0  0  0  0  0  0  0  0
    3.4764    0.4647    4.9698 H   0  0  0  0  0  0  0  0  0  0  0  0
    4.1933   -0.9555    4.1950 H   0  0  0  0  0  0  0  0  0  0  0  0
   -0.5313    1.1983   -1.4217 H   0  0  0  0  0  0  0  0  0  0  0  0
   -2.6748    1.8689   -2.0809 H   0  0  0  0  0  0  0  0  0  0  0  0
   -5.9125   -0.6693   -0.8047 H   0  0  0  0  0  0  0  0  0  0  0  0
   -4.2747   -2.3870   -0.0935 H   0  0  0  0  0  0  0  0  0  0  0  0
   -1.8762   -1.9867   -0.3439 H   0  0  0  0  0  0  0  0  0  0  0  0
   -0.6088   -2.2814   -2.4981 H   0  0  0  0  0  0  0  0  0  0  0  0
    1.2911   -3.8381   -2.1752 H   0  0  0  0  0  0  0  0  0  0  0  0
    3.4520   -1.0353   -0.0949 H   0  0  0  0  0  0  0  0  0  0  0  0
  1  3  2  0  0  0  0
  1  4  1  0  0  0  0
  2  1  2  0  0  0  0
  4  5  1  0  0  0  0
  5  6  2  0  0  0  0
  5  7  1  0  0  0  0
  7 28  1  0  0  0  0
  7  8  1  0  0  0  0
  8 29  1  0  0  0  0
  8 30  1  0  0  0  0
  9 25  1  0  0  0  0
  9  1  1  0  0  0  0
 10  9  2  0  0  0  0
 11 32  1  0  0  0  0
 11 10  1  0  0  0  0
 11 12  1  0  0  0  0
 12 17  2  0  0  0  0
 13 14  2  0  0  0  0
 13 12  1  0  0  0  0
 14 15  1  0  0  0  0
 15 34  1  0  0  0  0
 15 16  2  0  0  0  0
 16 35  1  0  0  0  0
 17 16  1  0  0  0  0
 17 36  1  0  0  0  0
 18 14  1  0  0  0  0
 18 20  1  0  0  0  0
 19 18  1  0  0  0  0
 21 18  1  0  0  0  0
 22 23  2  0  0  0  0
 22 10  1  0  0  0  0
 23 24  1  0  0  0  0
 24 25  2  0  0  0  0
 25 39  1  0  0  0  0
 26  4  1  0  0  0  0
 27  7  1  0  0  0  0
 31  8  1  0  0  0  0
 33 13  1  0  0  0  0
 37 22  1  0  0  0  0
 38 23  1  0  0  0  0
M  END
