4.21798
 OpenBabel10231816213D

 66 68  0  0  1  0  0  0  0  0999 V2000
    0.6498    0.6668    1.2341 C   0  0  2  0  0  0  0  0  0  0  0  0
    1.3424   -0.6013    0.6847 C   0  0  0  0  0  0  0  0  0  0  0  0
    0.4550   -1.4550   -0.1867 C   0  0  0  0  0  0  0  0  0  0  0  0
    0.0863   -1.0237   -1.4705 C   0  0  0  0  0  0  0  0  0  0  0  0
   -0.9070   -1.6878   -2.1897 C   0  0  0  0  0  0  0  0  0  0  0  0
   -1.4979   -2.8200   -1.6465 C   0  0  0  0  0  0  0  0  0  0  0  0
   -1.0084   -3.3616   -0.4586 C   0  0  0  0  0  0  0  0  0  0  0  0
   -0.0607   -2.6626    0.2914 C   0  0  0  0  0  0  0  0  0  0  0  0
   -2.5679   -3.4454   -2.2200 O   0  0  0  0  0  0  0  0  0  0  0  0
   -3.7336   -2.6135   -2.3459 C   0  0  0  0  0  0  0  0  0  0  0  0
   -4.5607   -2.5305   -1.0538 C   0  0  0  0  0  0  0  0  0  0  0  0
   -3.9147   -1.7840    0.1153 C   0  0  0  0  0  0  0  0  0  0  0  0
   -3.6557   -0.3291   -0.1923 C   0  0  0  0  0  0  0  0  0  0  0  0
   -4.4941    0.3655   -0.7769 O   0  0  0  0  0  0  0  0  0  0  0  0
   -2.5118    0.2015    0.3454 N   0  0  0  0  0  0  0  0  0  0  0  0
   -2.2062    1.6300    0.2234 C   0  0  2  0  0  0  0  0  0  0  0  0
   -0.8526    1.9327   -0.4437 C   0  0  0  0  0  0  0  0  0  0  0  0
   -0.7934    2.5391   -1.5167 O   0  0  0  0  0  0  0  0  0  0  0  0
    0.3331    1.6197    0.1553 N   0  0  0  0  0  0  0  0  0  0  0  0
   -2.3227    2.3984    1.5428 C   0  0  0  0  0  0  0  0  0  0  0  0
   -3.6419    2.2910    2.2783 C   0  0  0  0  0  0  0  0  0  0  0  0
   -3.7041    2.4220    3.5002 O   0  0  0  0  0  0  0  0  0  0  0  0
   -4.7699    2.1523    1.5476 N   0  0  0  0  0  0  0  0  0  0  0  0
    1.5178    1.3639    2.3111 C   0  0  2  0  0  0  0  0  0  0  0  0
    0.8853    2.5851    2.7149 O   0  0  0  0  0  0  0  0  0  0  0  0
    2.9750    1.6508    1.9007 C   0  0  0  0  0  0  0  0  0  0  0  0
    3.0287    2.4548    0.6521 N   0  0  0  0  0  0  0  0  0  0  0  0
    4.4816    2.4090   -0.2275 S   0  0  0  0  0  0  0  0  0  0  0  0
    4.2666    3.2450   -1.3850 O   0  0  0  0  0  0  0  0  0  0  0  0
    5.5437    2.6635    0.7180 O   0  0  0  0  0  0  0  0  0  0  0  0
    4.5904    0.7259   -0.7721 C   0  0  0  0  0  0  0  0  0  0  0  0
    5.4985   -0.1362   -0.1494 C   0  0  0  0  0  0  0  0  0  0  0  0
    5.5690   -1.4694   -0.5496 C   0  0  0  0  0  0  0  0  0  0  0  0
    4.7373   -1.9349   -1.5686 C   0  0  0  0  0  0  0  0  0  0  0  0
    3.8410   -1.0681   -2.1975 C   0  0  0  0  0  0  0  0  0  0  0  0
    3.7719    0.2728   -1.8094 C   0  0  0  0  0  0  0  0  0  0  0  0
   -0.2860    0.3789    1.7143 H   0  0  0  0  0  0  0  0  0  0  0  0
    1.7336   -1.1983    1.5181 H   0  0  0  0  0  0  0  0  0  0  0  0
    2.2064   -0.3127    0.0945 H   0  0  0  0  0  0  0  0  0  0  0  0
    0.5285   -0.1286   -1.9036 H   0  0  0  0  0  0  0  0  0  0  0  0
   -1.2245   -1.3002   -3.1530 H   0  0  0  0  0  0  0  0  0  0  0  0
   -1.4406   -4.2816   -0.0733 H   0  0  0  0  0  0  0  0  0  0  0  0
    0.2428   -3.0535    1.2597 H   0  0  0  0  0  0  0  0  0  0  0  0
   -4.3607   -3.1084   -3.1002 H   0  0  0  0  0  0  0  0  0  0  0  0
   -3.5122   -1.6198   -2.7510 H   0  0  0  0  0  0  0  0  0  0  0  0
   -5.5110   -2.0385   -1.2936 H   0  0  0  0  0  0  0  0  0  0  0  0
   -4.7983   -3.5477   -0.7200 H   0  0  0  0  0  0  0  0  0  0  0  0
   -3.0242   -2.2755    0.4900 H   0  0  0  0  0  0  0  0  0  0  0  0
   -4.6173   -1.7903    0.9601 H   0  0  0  0  0  0  0  0  0  0  0  0
   -1.8061   -0.4387    0.6842 H   0  0  0  0  0  0  0  0  0  0  0  0
   -2.9363    2.0628   -0.4709 H   0  0  0  0  0  0  0  0  0  0  0  0
    1.1306    1.9344   -0.3976 H   0  0  0  0  0  0  0  0  0  0  0  0
   -1.5575    2.0712    2.2480 H   0  0  0  0  0  0  0  0  0  0  0  0
   -2.1481    3.4637    1.3542 H   0  0  0  0  0  0  0  0  0  0  0  0
   -5.6271    2.0304    2.0705 H   0  0  0  0  0  0  0  0  0  0  0  0
   -4.7753    1.7561    0.6088 H   0  0  0  0  0  0  0  0  0  0  0  0
    1.5428    0.7209    3.1991 H   0  0  0  0  0  0  0  0  0  0  0  0
    0.6361    3.0497    1.8941 H   0  0  0  0  0  0  0  0  0  0  0  0
    3.4936    0.7008    1.7623 H   0  0  0  0  0  0  0  0  0  0  0  0
    3.4679    2.2122    2.7000 H   0  0  0  0  0  0  0  0  0  0  0  0
    2.8192    3.4461    0.8141 H   0  0  0  0  0  0  0  0  0  0  0  0
    6.1452    0.2232    0.6488 H   0  0  0  0  0  0  0  0  0  0  0  0
    6.2741   -2.1442   -0.0698 H   0  0  0  0  0  0  0  0  0  0  0  0
    4.7902   -2.9780   -1.8769 H   0  0  0  0  0  0  0  0  0  0  0  0
    3.1864   -1.4429   -2.9827 H   0  0  0  0  0  0  0  0  0  0  0  0
    3.0577    0.9421   -2.2831 H   0  0  0  0  0  0  0  0  0  0  0  0
  1 37  1  1  0  0  0
  1 24  1  0  0  0  0
  2  1  1  0  0  0  0
  2 38  1  0  0  0  0
  3  8  1  0  0  0  0
  3  2  1  0  0  0  0
  4  3  2  0  0  0  0
  5  6  2  0  0  0  0
  5  4  1  0  0  0  0
  6  7  1  0  0  0  0
  7 42  1  0  0  0  0
  7  8  2  0  0  0  0
  8 43  1  0  0  0  0
  9  6  1  0  0  0  0
 10  9  1  0  0  0  0
 10 11  1  0  0  0  0
 11 47  1  0  0  0  0
 11 12  1  0  0  0  0
 12 48  1  0  0  0  0
 12 49  1  0  0  0  0
 13 12  1  0  0  0  0
 13 15  1  0  0  0  0
 14 13  2  0  0  0  0
 15 50  1  0  0  0  0
 16 51  1  6  0  0  0
 16 15  1  0  0  0  0
 16 20  1  0  0  0  0
 17 19  1  0  0  0  0
 17 16  1  0  0  0  0
 18 17  2  0  0  0  0
 19  1  1  0  0  0  0
 20 53  1  0  0  0  0
 20 21  1  0  0  0  0
 21 22  2  0  0  0  0
 23 55  1  0  0  0  0
 23 21  1  0  0  0  0
 24 25  1  0  0  0  0
 24 57  1  1  0  0  0
 26 24  1  0  0  0  0
 26 60  1  0  0  0  0
 27 61  1  0  0  0  0
 27 26  1  0  0  0  0
 28 27  1  0  0  0  0
 28 30  2  0  0  0  0
 29 28  2  0  0  0  0
 31 28  1  0  0  0  0
 31 32  2  0  0  0  0
 32 62  1  0  0  0  0
 33 32  1  0  0  0  0
 33 63  1  0  0  0  0
 34 33  2  0  0  0  0
 35 36  2  0  0  0  0
 35 34  1  0  0  0  0
 36 31  1  0  0  0  0
 39  2  1  0  0  0  0
 40  4  1  0  0  0  0
 41  5  1  0  0  0  0
 44 10  1  0  0  0  0
 45 10  1  0  0  0  0
 46 11  1  0  0  0  0
 52 19  1  0  0  0  0
 54 20  1  0  0  0  0
 56 23  1  0  0  0  0
 58 25  1  0  0  0  0
 59 26  1  0  0  0  0
 64 34  1  0  0  0  0
 65 35  1  0  0  0  0
 66 36  1  0  0  0  0
M  END
