76.5511
 OpenBabel10231816213D

 45 47  0  0  1  0  0  0  0  0999 V2000
   -0.4931    0.7834    1.0011 S   0  0  0  0  0  0  0  0  0  0  0  0
   -0.9431    1.3503   -0.5564 C   0  0  0  0  0  0  0  0  0  0  0  0
   -0.0308    0.9491   -1.5134 C   0  0  0  0  0  0  0  0  0  0  0  0
    1.0186    0.1613   -0.9676 C   0  0  0  0  0  0  0  0  0  0  0  0
    0.9020   -0.0165    0.3989 C   0  0  0  0  0  0  0  0  0  0  0  0
    1.7982   -0.7828    1.3423 C   0  0  1  0  0  0  0  0  0  0  0  0
    1.2085   -2.0687    1.5318 O   0  0  0  0  0  0  0  0  0  0  0  0
    3.2141   -0.9415    0.8202 C   0  0  0  0  0  0  0  0  0  0  0  0
    4.1762    0.0441    1.0876 C   0  0  0  0  0  0  0  0  0  0  0  0
    5.4633   -0.0472    0.5456 C   0  0  0  0  0  0  0  0  0  0  0  0
    5.8042   -1.1202   -0.2782 C   0  0  0  0  0  0  0  0  0  0  0  0
    7.0158   -1.3186   -0.8806 O   0  0  0  0  0  0  0  0  0  0  0  0
    8.0213   -0.3476   -0.6254 C   0  0  0  0  0  0  0  0  0  0  0  0
    4.8530   -2.1034   -0.5493 C   0  0  0  0  0  0  0  0  0  0  0  0
    3.5715   -2.0191   -0.0045 C   0  0  0  0  0  0  0  0  0  0  0  0
   -2.1975    2.1568   -0.7837 C   0  0  2  0  0  0  0  0  0  0  0  0
   -2.1408    3.3100    0.0565 O   0  0  0  0  0  0  0  0  0  0  0  0
   -3.4660    1.3592   -0.5591 C   0  0  0  0  0  0  0  0  0  0  0  0
   -4.2436    1.5266    0.5938 C   0  0  0  0  0  0  0  0  0  0  0  0
   -5.3932    0.7600    0.8050 C   0  0  0  0  0  0  0  0  0  0  0  0
   -5.7852   -0.1904   -0.1365 C   0  0  0  0  0  0  0  0  0  0  0  0
   -6.8802   -1.0050   -0.0425 O   0  0  0  0  0  0  0  0  0  0  0  0
   -7.6784   -0.8584    1.1257 C   0  0  0  0  0  0  0  0  0  0  0  0
   -5.0186   -0.3648   -1.2895 C   0  0  0  0  0  0  0  0  0  0  0  0
   -3.8687    0.4006   -1.5026 C   0  0  0  0  0  0  0  0  0  0  0  0
   -0.1202    1.1929   -2.5634 H   0  0  0  0  0  0  0  0  0  0  0  0
    1.8258   -0.2560   -1.5582 H   0  0  0  0  0  0  0  0  0  0  0  0
    1.8396   -0.3001    2.3268 H   0  0  0  0  0  0  0  0  0  0  0  0
    0.3151   -1.9085    1.8776 H   0  0  0  0  0  0  0  0  0  0  0  0
    3.9248    0.9011    1.7094 H   0  0  0  0  0  0  0  0  0  0  0  0
    6.1701    0.7413    0.7788 H   0  0  0  0  0  0  0  0  0  0  0  0
    8.2689   -0.3084    0.4405 H   0  0  0  0  0  0  0  0  0  0  0  0
    7.7217    0.6370   -0.9995 H   0  0  0  0  0  0  0  0  0  0  0  0
    8.9228   -0.6495   -1.1667 H   0  0  0  0  0  0  0  0  0  0  0  0
    5.1067   -2.9391   -1.1966 H   0  0  0  0  0  0  0  0  0  0  0  0
    2.8408   -2.7901   -0.2426 H   0  0  0  0  0  0  0  0  0  0  0  0
   -2.2148    2.5346   -1.8144 H   0  0  0  0  0  0  0  0  0  0  0  0
   -1.2832    3.7304   -0.1141 H   0  0  0  0  0  0  0  0  0  0  0  0
   -3.9517    2.2576    1.3463 H   0  0  0  0  0  0  0  0  0  0  0  0
   -5.9533    0.9330    1.7170 H   0  0  0  0  0  0  0  0  0  0  0  0
   -7.1055   -1.0976    2.0282 H   0  0  0  0  0  0  0  0  0  0  0  0
   -8.1080    0.1473    1.1850 H   0  0  0  0  0  0  0  0  0  0  0  0
   -8.5056   -1.5707    1.0579 H   0  0  0  0  0  0  0  0  0  0  0  0
   -5.3161   -1.1070   -2.0264 H   0  0  0  0  0  0  0  0  0  0  0  0
   -3.2856    0.2345   -2.4051 H   0  0  0  0  0  0  0  0  0  0  0  0
  2  1  1  0  0  0  0
  3  4  1  0  0  0  0
  3  2  2  0  0  0  0
  4  5  2  0  0  0  0
  5  1  1  0  0  0  0
  5  6  1  0  0  0  0
  6  7  1  0  0  0  0
  6 28  1  1  0  0  0
  7 29  1  0  0  0  0
  8  9  1  0  0  0  0
  8  6  1  0  0  0  0
  9 30  1  0  0  0  0
 10 31  1  0  0  0  0
 10  9  2  0  0  0  0
 11 10  1  0  0  0  0
 12 13  1  0  0  0  0
 12 11  1  0  0  0  0
 13 32  1  0  0  0  0
 14 11  2  0  0  0  0
 14 15  1  0  0  0  0
 15  8  2  0  0  0  0
 16 37  1  6  0  0  0
 16 18  1  0  0  0  0
 16  2  1  0  0  0  0
 16 17  1  0  0  0  0
 18 19  2  0  0  0  0
 19 20  1  0  0  0  0
 19 39  1  0  0  0  0
 20 40  1  0  0  0  0
 21 22  1  0  0  0  0
 21 20  2  0  0  0  0
 22 23  1  0  0  0  0
 23 42  1  0  0  0  0
 23 41  1  0  0  0  0
 24 21  1  0  0  0  0
 25 24  2  0  0  0  0
 25 18  1  0  0  0  0
 26  3  1  0  0  0  0
 27  4  1  0  0  0  0
 33 13  1  0  0  0  0
 34 13  1  0  0  0  0
 35 14  1  0  0  0  0
 36 15  1  0  0  0  0
 38 17  1  0  0  0  0
 43 23  1  0  0  0  0
 44 24  1  0  0  0  0
 45 25  1  0  0  0  0
M  END
