83.1001
 OpenBabel10231816213D

 44 47  0  0  1  0  0  0  0  0999 V2000
    0.0485   -5.1422   -0.8447 Cl  0  0  0  0  0  0  0  0  0  0  0  0
   -0.6887   -3.5975   -0.7729 C   0  0  0  0  0  0  0  0  0  0  0  0
   -0.4227   -2.7357    0.2719 C   0  0  0  0  0  0  0  0  0  0  0  0
   -0.9412   -1.4919    0.3641 N   0  0  0  0  0  0  0  0  0  0  0  0
   -1.7810   -1.0689   -0.6089 C   0  0  0  0  0  0  0  0  0  0  0  0
   -2.2664    0.2379   -0.4729 N   0  0  0  0  0  0  0  0  0  0  0  0
   -3.2310    0.8772   -1.2315 C   0  0  0  0  0  0  0  0  0  0  0  0
   -3.8638    0.4679   -2.1889 O   0  0  0  0  0  0  0  0  0  0  0  0
   -3.4174    2.2087   -0.6278 C   0  0  0  0  0  0  0  0  0  0  0  0
   -4.3105    3.1387   -1.0077 N   0  0  0  0  0  0  0  0  0  0  0  0
   -4.2779    4.2484   -0.2290 C   0  0  0  0  0  0  0  0  0  0  0  0
   -3.4097    4.3929    0.8578 C   0  0  0  0  0  0  0  0  0  0  0  0
   -2.5197    3.4383    1.2234 N   0  0  0  0  0  0  0  0  0  0  0  0
   -2.5526    2.3393    0.4387 C   0  0  0  0  0  0  0  0  0  0  0  0
   -1.7178    1.0998    0.5728 C   0  0  2  0  0  0  0  0  0  0  0  0
   -0.3743    1.3971    0.2173 O   0  0  0  0  0  0  0  0  0  0  0  0
    0.5081    1.2810    1.2375 C   0  0  0  0  0  0  0  0  0  0  0  0
    0.2073    1.3336    2.4202 O   0  0  0  0  0  0  0  0  0  0  0  0
    1.7833    1.0292    0.7580 N   0  0  0  0  0  0  0  0  0  0  0  0
    1.9385    0.4682   -0.5890 C   0  0  0  0  0  0  0  0  0  0  0  0
    3.3361   -0.1204   -0.8243 C   0  0  0  0  0  0  0  0  0  0  0  0
    3.7607   -1.1012    0.2004 N   0  0  0  0  0  0  0  0  0  0  0  0
    3.2176   -0.7893    1.5462 C   0  0  0  0  0  0  0  0  0  0  0  0
    2.8472    0.6949    1.7047 C   0  0  0  0  0  0  0  0  0  0  0  0
    3.4289   -2.4684   -0.1879 C   0  0  0  0  0  0  0  0  0  0  0  0
   -2.1165   -1.8886   -1.6828 C   0  0  0  0  0  0  0  0  0  0  0  0
   -1.5556   -3.1672   -1.7662 C   0  0  0  0  0  0  0  0  0  0  0  0
    0.2474   -3.0102    1.0812 H   0  0  0  0  0  0  0  0  0  0  0  0
   -4.9748    5.0366   -0.4949 H   0  0  0  0  0  0  0  0  0  0  0  0
   -3.4113    5.2902    1.4666 H   0  0  0  0  0  0  0  0  0  0  0  0
   -1.8581    0.6293    1.5523 H   0  0  0  0  0  0  0  0  0  0  0  0
    1.1992   -0.3308   -0.7168 H   0  0  0  0  0  0  0  0  0  0  0  0
    1.7061    1.2461   -1.3247 H   0  0  0  0  0  0  0  0  0  0  0  0
    4.0569    0.7065   -0.8060 H   0  0  0  0  0  0  0  0  0  0  0  0
    3.4014   -0.5466   -1.8330 H   0  0  0  0  0  0  0  0  0  0  0  0
    2.3115   -1.3785    1.7477 H   0  0  0  0  0  0  0  0  0  0  0  0
    3.9621   -1.0718    2.2978 H   0  0  0  0  0  0  0  0  0  0  0  0
    3.7129    1.3311    1.4818 H   0  0  0  0  0  0  0  0  0  0  0  0
    2.5432    0.9082    2.7340 H   0  0  0  0  0  0  0  0  0  0  0  0
    3.7724   -3.1793    0.5710 H   0  0  0  0  0  0  0  0  0  0  0  0
    3.9323   -2.7319   -1.1237 H   0  0  0  0  0  0  0  0  0  0  0  0
    2.3540   -2.6101   -0.3315 H   0  0  0  0  0  0  0  0  0  0  0  0
   -2.7846   -1.5619   -2.4725 H   0  0  0  0  0  0  0  0  0  0  0  0
   -1.7997   -3.8090   -2.6080 H   0  0  0  0  0  0  0  0  0  0  0  0
  1  2  1  0  0  0  0
  2  3  2  0  0  0  0
  3  4  1  0  0  0  0
  3 28  1  0  0  0  0
  5  6  1  0  0  0  0
  5  4  2  0  0  0  0
  6 15  1  0  0  0  0
  7  9  1  0  0  0  0
  7  6  1  0  0  0  0
  8  7  2  0  0  0  0
  9 14  1  0  0  0  0
 10  9  2  0  0  0  0
 10 11  1  0  0  0  0
 11 12  2  0  0  0  0
 12 13  1  0  0  0  0
 12 30  1  0  0  0  0
 14 15  1  0  0  0  0
 14 13  2  0  0  0  0
 15 31  1  1  0  0  0
 16 15  1  0  0  0  0
 16 17  1  0  0  0  0
 17 18  2  0  0  0  0
 19 17  1  0  0  0  0
 19 24  1  0  0  0  0
 20 19  1  0  0  0  0
 21 34  1  0  0  0  0
 21 20  1  0  0  0  0
 21 22  1  0  0  0  0
 22 23  1  0  0  0  0
 23 24  1  0  0  0  0
 23 36  1  0  0  0  0
 23 37  1  0  0  0  0
 24 39  1  0  0  0  0
 25 22  1  0  0  0  0
 25 40  1  0  0  0  0
 26  5  1  0  0  0  0
 27 26  2  0  0  0  0
 27  2  1  0  0  0  0
 29 11  1  0  0  0  0
 32 20  1  0  0  0  0
 33 20  1  0  0  0  0
 35 21  1  0  0  0  0
 38 24  1  0  0  0  0
 41 25  1  0  0  0  0
 42 25  1  0  0  0  0
 43 26  1  0  0  0  0
 44 27  1  0  0  0  0
M  END
