117.464
 OpenBabel10231816213D

 34 35  0  0  1  0  0  0  0  0999 V2000
   -1.2079   -0.3989   -0.3824 C   0  0  1  0  0  0  0  0  0  0  0  0
    0.1296    0.1086   -0.1876 N   0  0  0  0  0  0  0  0  0  0  0  0
    1.1941   -0.8427   -0.5153 C   0  0  0  0  0  0  0  0  0  0  0  0
    2.5698   -0.2258   -0.3288 C   0  0  0  0  0  0  0  0  0  0  0  0
    3.6735   -1.0333   -0.0596 C   0  0  0  0  0  0  0  0  0  0  0  0
    4.9470   -0.4738    0.0806 C   0  0  0  0  0  0  0  0  0  0  0  0
    5.1267    0.9008   -0.0602 C   0  0  0  0  0  0  0  0  0  0  0  0
    4.0339    1.7176   -0.3342 C   0  0  0  0  0  0  0  0  0  0  0  0
    2.7669    1.1549   -0.4728 C   0  0  0  0  0  0  0  0  0  0  0  0
   -1.7878   -1.2051    0.8046 C   0  0  1  0  0  0  0  0  0  0  0  0
   -1.3611   -0.5809    2.0269 O   0  0  0  0  0  0  0  0  0  0  0  0
   -3.3248   -1.0853    0.6603 C   0  0  1  0  0  0  0  0  0  0  0  0
   -3.8871   -0.7159    1.9295 O   0  0  0  0  0  0  0  0  0  0  0  0
   -3.5618    0.0198   -0.3918 C   0  0  1  0  0  0  0  0  0  0  0  0
   -4.6323    0.8632    0.0375 O   0  0  0  0  0  0  0  0  0  0  0  0
   -2.2257    0.7429   -0.4485 C   0  0  2  0  0  0  0  0  0  0  0  0
   -2.0631    1.7956   -1.9338 S   0  0  0  0  0  0  0  0  0  0  0  0
   -1.2808   -0.9932   -1.3007 H   0  0  0  0  0  0  0  0  0  0  0  0
    0.2244    0.3635    0.8063 H   0  0  0  0  0  0  0  0  0  0  0  0
    1.1283   -1.7443    0.1042 H   0  0  0  0  0  0  0  0  0  0  0  0
    1.0917   -1.1491   -1.5629 H   0  0  0  0  0  0  0  0  0  0  0  0
    3.5491   -2.1050    0.0547 H   0  0  0  0  0  0  0  0  0  0  0  0
    5.7993   -1.1153    0.3000 H   0  0  0  0  0  0  0  0  0  0  0  0
    6.1191    1.3380    0.0478 H   0  0  0  0  0  0  0  0  0  0  0  0
    4.1619    2.7915   -0.4436 H   0  0  0  0  0  0  0  0  0  0  0  0
    1.9142    1.8026   -0.6794 H   0  0  0  0  0  0  0  0  0  0  0  0
   -1.4494   -2.2448    0.8218 H   0  0  0  0  0  0  0  0  0  0  0  0
   -2.1883   -0.4400    2.5339 H   0  0  0  0  0  0  0  0  0  0  0  0
   -3.7826   -2.0265    0.3402 H   0  0  0  0  0  0  0  0  0  0  0  0
   -4.4344    0.0816    1.7401 H   0  0  0  0  0  0  0  0  0  0  0  0
   -3.8029   -0.4304   -1.3628 H   0  0  0  0  0  0  0  0  0  0  0  0
   -4.5675    1.6954   -0.4727 H   0  0  0  0  0  0  0  0  0  0  0  0
   -2.1242    1.4027    0.4271 H   0  0  0  0  0  0  0  0  0  0  0  0
   -0.7477    2.0316   -1.7784 H   0  0  0  0  0  0  0  0  0  0  0  0
  1 18  1  6  0  0  0
  1  2  1  0  0  0  0
  1 10  1  0  0  0  0
  2 19  1  0  0  0  0
  3  4  1  0  0  0  0
  3  2  1  0  0  0  0
  3 20  1  0  0  0  0
  4  5  2  0  0  0  0
  5 22  1  0  0  0  0
  5  6  1  0  0  0  0
  6 23  1  0  0  0  0
  7 24  1  0  0  0  0
  7  6  2  0  0  0  0
  8  7  1  0  0  0  0
  9  8  2  0  0  0  0
  9  4  1  0  0  0  0
 10 27  1  6  0  0  0
 10 11  1  0  0  0  0
 11 28  1  0  0  0  0
 12 29  1  6  0  0  0
 12 10  1  0  0  0  0
 12 13  1  0  0  0  0
 14 31  1  6  0  0  0
 14 15  1  0  0  0  0
 14 12  1  0  0  0  0
 16 14  1  0  0  0  0
 16  1  1  0  0  0  0
 16 33  1  1  0  0  0
 17 34  1  0  0  0  0
 17 16  1  0  0  0  0
 21  3  1  0  0  0  0
 25  8  1  0  0  0  0
 26  9  1  0  0  0  0
 30 13  1  0  0  0  0
 32 15  1  0  0  0  0
M  END
