-3.11891
 OpenBabel10231816213D

 39 41  0  0  1  0  0  0  0  0999 V2000
   -2.0139    2.1905    0.5685 N   0  0  0  0  0  0  0  0  0  0  0  0
   -0.7473    2.0008    0.1619 C   0  0  0  0  0  0  0  0  0  0  0  0
   -0.1596    0.8152   -0.0822 N   0  0  0  0  0  0  0  0  0  0  0  0
   -0.8386   -0.3478    0.0622 C   0  0  0  0  0  0  0  0  0  0  0  0
   -2.1708   -0.2539    0.4846 C   0  0  0  0  0  0  0  0  0  0  0  0
   -2.6546    1.0231    0.7086 C   0  0  0  0  0  0  0  0  0  0  0  0
   -3.9562    0.9004    1.1037 O   0  0  0  0  0  0  0  0  0  0  0  0
   -4.1821   -0.4489    1.0955 C   0  0  0  0  0  0  0  0  0  0  0  0
   -3.1549   -1.1914    0.7282 N   0  0  0  0  0  0  0  0  0  0  0  0
   -5.5383   -0.8789    1.4941 C   0  0  0  0  0  0  0  0  0  0  0  0
   -0.2223   -1.5515   -0.2153 N   0  0  0  0  0  0  0  0  0  0  0  0
    1.1088   -1.6281   -0.8264 C   0  0  1  0  0  0  0  0  0  0  0  0
    1.1247   -1.3384   -2.3323 C   0  0  0  0  0  0  0  0  0  0  0  0
    0.6042    0.0023   -2.7680 C   0  0  0  0  0  0  0  0  0  0  0  0
    1.2421    1.0377   -2.8920 O   0  0  0  0  0  0  0  0  0  0  0  0
   -0.6966   -0.0321   -3.1173 O   0  0  0  0  0  0  0  0  0  0  0  0
    2.1819   -0.9809    0.0457 C   0  0  0  0  0  0  0  0  0  0  0  0
    2.2932   -1.3717    1.3924 C   0  0  0  0  0  0  0  0  0  0  0  0
    3.2555   -0.8024    2.2303 C   0  0  0  0  0  0  0  0  0  0  0  0
    4.1270    0.1593    1.7320 C   0  0  0  0  0  0  0  0  0  0  0  0
    4.0355    0.5583    0.4051 C   0  0  0  0  0  0  0  0  0  0  0  0
    3.0737   -0.0102   -0.4328 C   0  0  0  0  0  0  0  0  0  0  0  0
    0.1127    3.2100   -0.0495 C   0  0  0  0  0  0  0  0  0  0  0  0
   -6.2862   -0.4563    0.8169 H   0  0  0  0  0  0  0  0  0  0  0  0
   -5.6229   -1.9685    1.4638 H   0  0  0  0  0  0  0  0  0  0  0  0
   -5.7603   -0.5446    2.5116 H   0  0  0  0  0  0  0  0  0  0  0  0
   -0.8431   -2.3481   -0.2917 H   0  0  0  0  0  0  0  0  0  0  0  0
    1.3692   -2.6974   -0.7746 H   0  0  0  0  0  0  0  0  0  0  0  0
    0.5405   -2.1018   -2.8620 H   0  0  0  0  0  0  0  0  0  0  0  0
    2.1432   -1.4367   -2.7302 H   0  0  0  0  0  0  0  0  0  0  0  0
   -0.9018    0.9031   -3.3270 H   0  0  0  0  0  0  0  0  0  0  0  0
    1.6055   -2.1109    1.8011 H   0  0  0  0  0  0  0  0  0  0  0  0
    3.3151   -1.1110    3.2694 H   0  0  0  0  0  0  0  0  0  0  0  0
    4.8738    0.6071    2.3849 H   0  0  0  0  0  0  0  0  0  0  0  0
    4.7029    1.3213    0.0130 H   0  0  0  0  0  0  0  0  0  0  0  0
    3.0365    0.3470   -1.4541 H   0  0  0  0  0  0  0  0  0  0  0  0
    0.7803    3.3436    0.8061 H   0  0  0  0  0  0  0  0  0  0  0  0
   -0.4977    4.1084   -0.1730 H   0  0  0  0  0  0  0  0  0  0  0  0
    0.7211    3.0838   -0.9513 H   0  0  0  0  0  0  0  0  0  0  0  0
  1  6  1  0  0  0  0
  2  1  2  0  0  0  0
  3  4  2  0  0  0  0
  3  2  1  0  0  0  0
  4  5  1  0  0  0  0
  5  6  2  0  0  0  0
  5  9  1  0  0  0  0
  6  7  1  0  0  0  0
  8  7  1  0  0  0  0
  8 10  1  0  0  0  0
  9  8  2  0  0  0  0
 10 26  1  0  0  0  0
 11  4  1  0  0  0  0
 12 28  1  1  0  0  0
 12 11  1  0  0  0  0
 12 17  1  0  0  0  0
 13 12  1  0  0  0  0
 14 13  1  0  0  0  0
 15 14  2  0  0  0  0
 16 14  1  0  0  0  0
 17 18  1  0  0  0  0
 18 32  1  0  0  0  0
 18 19  2  0  0  0  0
 19 33  1  0  0  0  0
 20 19  1  0  0  0  0
 20 34  1  0  0  0  0
 21 20  2  0  0  0  0
 22 17  2  0  0  0  0
 22 21  1  0  0  0  0
 23  2  1  0  0  0  0
 23 37  1  0  0  0  0
 24 10  1  0  0  0  0
 25 10  1  0  0  0  0
 27 11  1  0  0  0  0
 29 13  1  0  0  0  0
 30 13  1  0  0  0  0
 31 16  1  0  0  0  0
 35 21  1  0  0  0  0
 36 22  1  0  0  0  0
 38 23  1  0  0  0  0
 39 23  1  0  0  0  0
M  END
