1.7736
 OpenBabel10231816213D

 66 68  0  0  1  0  0  0  0  0999 V2000
    0.6186   -0.2183    0.6948 C   0  0  2  0  0  0  0  0  0  0  0  0
    0.9901   -1.3581   -0.2692 C   0  0  0  0  0  0  0  0  0  0  0  0
   -0.2100   -2.2405   -0.5216 C   0  0  0  0  0  0  0  0  0  0  0  0
   -0.6659   -3.0910    0.4912 C   0  0  0  0  0  0  0  0  0  0  0  0
   -1.8799   -3.7607    0.3604 C   0  0  0  0  0  0  0  0  0  0  0  0
   -2.6664   -3.5679   -0.7758 C   0  0  0  0  0  0  0  0  0  0  0  0
   -2.1854   -2.7857   -1.8237 C   0  0  0  0  0  0  0  0  0  0  0  0
   -0.9626   -2.1192   -1.6967 C   0  0  0  0  0  0  0  0  0  0  0  0
   -3.8930   -4.1665   -0.7590 O   0  0  0  0  0  0  0  0  0  0  0  0
   -4.9964   -3.3494   -1.1677 C   0  0  0  0  0  0  0  0  0  0  0  0
   -5.3950   -2.2648   -0.1504 C   0  0  0  0  0  0  0  0  0  0  0  0
   -4.4012   -1.1214    0.1109 C   0  0  0  0  0  0  0  0  0  0  0  0
   -4.1265   -0.2611   -1.1138 C   0  0  0  0  0  0  0  0  0  0  0  0
   -4.5521   -0.5635   -2.2339 O   0  0  0  0  0  0  0  0  0  0  0  0
   -3.3613    0.8538   -1.0305 N   0  0  0  0  0  0  0  0  0  0  0  0
   -2.7214    1.5380    0.1036 C   0  0  2  0  0  0  0  0  0  0  0  0
   -1.7002    0.6274    0.7926 C   0  0  0  0  0  0  0  0  0  0  0  0
   -1.9956   -0.0678    1.7671 O   0  0  0  0  0  0  0  0  0  0  0  0
   -0.4798    0.5810    0.1600 N   0  0  0  0  0  0  0  0  0  0  0  0
   -3.6833    2.1195    1.1265 C   0  0  0  0  0  0  0  0  0  0  0  0
   -2.9305    3.1111    1.9955 C   0  0  0  0  0  0  0  0  0  0  0  0
   -1.8498    3.6034    1.7215 O   0  0  0  0  0  0  0  0  0  0  0  0
   -3.6282    3.5218    3.0991 N   0  0  0  0  0  0  0  0  0  0  0  0
    1.8220    0.6713    1.0597 C   0  0  2  0  0  0  0  0  0  0  0  0
    1.3290    1.7174    1.9069 O   0  0  0  0  0  0  0  0  0  0  0  0
    2.5614    1.2832   -0.1473 C   0  0  0  0  0  0  0  0  0  0  0  0
    3.4414    2.3683    0.3420 N   0  0  0  0  0  0  0  0  0  0  0  0
    4.7000    2.8947   -0.6529 S   0  0  0  0  0  0  0  0  0  0  0  0
    4.1598    3.0165   -1.9798 O   0  0  0  0  0  0  0  0  0  0  0  0
    5.3071    4.0065    0.0338 O   0  0  0  0  0  0  0  0  0  0  0  0
    5.8495    1.5376   -0.6346 C   0  0  0  0  0  0  0  0  0  0  0  0
    6.8090    1.4535    0.3734 C   0  0  0  0  0  0  0  0  0  0  0  0
    7.7286    0.4047    0.3577 C   0  0  0  0  0  0  0  0  0  0  0  0
    7.6956   -0.5420   -0.6697 C   0  0  0  0  0  0  0  0  0  0  0  0
    6.7494   -0.4373   -1.6908 C   0  0  0  0  0  0  0  0  0  0  0  0
    5.8300    0.6097   -1.6805 C   0  0  0  0  0  0  0  0  0  0  0  0
    0.2667   -0.6597    1.6400 H   0  0  0  0  0  0  0  0  0  0  0  0
    1.8054   -1.9537    0.1589 H   0  0  0  0  0  0  0  0  0  0  0  0
    1.3562   -0.9485   -1.2177 H   0  0  0  0  0  0  0  0  0  0  0  0
   -0.0969   -3.1880    1.4125 H   0  0  0  0  0  0  0  0  0  0  0  0
   -2.2506   -4.3797    1.1714 H   0  0  0  0  0  0  0  0  0  0  0  0
   -2.7715   -2.6492   -2.7277 H   0  0  0  0  0  0  0  0  0  0  0  0
   -0.6304   -1.4694   -2.5016 H   0  0  0  0  0  0  0  0  0  0  0  0
   -4.8718   -2.9529   -2.1779 H   0  0  0  0  0  0  0  0  0  0  0  0
   -5.8436   -4.0464   -1.2407 H   0  0  0  0  0  0  0  0  0  0  0  0
   -5.5958   -2.7577    0.8087 H   0  0  0  0  0  0  0  0  0  0  0  0
   -6.3372   -1.8207   -0.4927 H   0  0  0  0  0  0  0  0  0  0  0  0
   -4.8275   -0.4799    0.8849 H   0  0  0  0  0  0  0  0  0  0  0  0
   -3.4658   -1.5089    0.5077 H   0  0  0  0  0  0  0  0  0  0  0  0
   -3.3049    1.3266   -1.9264 H   0  0  0  0  0  0  0  0  0  0  0  0
   -2.1686    2.3640   -0.3634 H   0  0  0  0  0  0  0  0  0  0  0  0
   -0.2688    1.3112   -0.5092 H   0  0  0  0  0  0  0  0  0  0  0  0
   -4.5030    2.6405    0.6192 H   0  0  0  0  0  0  0  0  0  0  0  0
   -4.1111    1.3467    1.7725 H   0  0  0  0  0  0  0  0  0  0  0  0
   -4.5840    3.2492    3.2850 H   0  0  0  0  0  0  0  0  0  0  0  0
   -3.2136    4.2360    3.6889 H   0  0  0  0  0  0  0  0  0  0  0  0
    2.5403    0.0821    1.6428 H   0  0  0  0  0  0  0  0  0  0  0  0
    2.1018    2.1253    2.3300 H   0  0  0  0  0  0  0  0  0  0  0  0
    3.1446    0.5055   -0.6430 H   0  0  0  0  0  0  0  0  0  0  0  0
    1.8550    1.7148   -0.8644 H   0  0  0  0  0  0  0  0  0  0  0  0
    2.9059    3.2060    0.5908 H   0  0  0  0  0  0  0  0  0  0  0  0
    6.8417    2.2006    1.1626 H   0  0  0  0  0  0  0  0  0  0  0  0
    8.4732    0.3264    1.1460 H   0  0  0  0  0  0  0  0  0  0  0  0
    8.4155   -1.3585   -0.6787 H   0  0  0  0  0  0  0  0  0  0  0  0
    6.7307   -1.1692   -2.4951 H   0  0  0  0  0  0  0  0  0  0  0  0
    5.1011    0.7033   -2.4821 H   0  0  0  0  0  0  0  0  0  0  0  0
  1 24  1  0  0  0  0
  1 37  1  1  0  0  0
  2 38  1  0  0  0  0
  2  1  1  0  0  0  0
  3  2  1  0  0  0  0
  3  4  2  0  0  0  0
  4 40  1  0  0  0  0
  5  4  1  0  0  0  0
  5 41  1  0  0  0  0
  6  9  1  0  0  0  0
  6  5  2  0  0  0  0
  7  8  2  0  0  0  0
  7  6  1  0  0  0  0
  8  3  1  0  0  0  0
 10  9  1  0  0  0  0
 10 11  1  0  0  0  0
 11 12  1  0  0  0  0
 11 46  1  0  0  0  0
 12 49  1  0  0  0  0
 12 48  1  0  0  0  0
 13 15  1  0  0  0  0
 13 12  1  0  0  0  0
 14 13  2  0  0  0  0
 15 16  1  0  0  0  0
 16 51  1  6  0  0  0
 16 17  1  0  0  0  0
 16 20  1  0  0  0  0
 17 18  2  0  0  0  0
 19  1  1  0  0  0  0
 19 17  1  0  0  0  0
 20 54  1  0  0  0  0
 20 21  1  0  0  0  0
 21 23  1  0  0  0  0
 22 21  2  0  0  0  0
 23 55  1  0  0  0  0
 23 56  1  0  0  0  0
 24 57  1  1  0  0  0
 24 25  1  0  0  0  0
 25 58  1  0  0  0  0
 26 27  1  0  0  0  0
 26 24  1  0  0  0  0
 27 61  1  0  0  0  0
 28 31  1  0  0  0  0
 28 30  2  0  0  0  0
 28 27  1  0  0  0  0
 29 28  2  0  0  0  0
 31 32  2  0  0  0  0
 32 62  1  0  0  0  0
 33 32  1  0  0  0  0
 33 63  1  0  0  0  0
 34 33  2  0  0  0  0
 35 36  2  0  0  0  0
 35 34  1  0  0  0  0
 36 31  1  0  0  0  0
 39  2  1  0  0  0  0
 42  7  1  0  0  0  0
 43  8  1  0  0  0  0
 44 10  1  0  0  0  0
 45 10  1  0  0  0  0
 47 11  1  0  0  0  0
 50 15  1  0  0  0  0
 52 19  1  0  0  0  0
 53 20  1  0  0  0  0
 59 26  1  0  0  0  0
 60 26  1  0  0  0  0
 64 34  1  0  0  0  0
 65 35  1  0  0  0  0
 66 36  1  0  0  0  0
M  END
