117.479
 OpenBabel10231816213D

 34 35  0  0  1  0  0  0  0  0999 V2000
   -1.2080   -0.3998   -0.3821 C   0  0  1  0  0  0  0  0  0  0  0  0
    0.1295    0.1069   -0.1860 N   0  0  0  0  0  0  0  0  0  0  0  0
    1.1943   -0.8443   -0.5134 C   0  0  0  0  0  0  0  0  0  0  0  0
    2.5699   -0.2265   -0.3280 C   0  0  0  0  0  0  0  0  0  0  0  0
    3.6746   -1.0336   -0.0614 C   0  0  0  0  0  0  0  0  0  0  0  0
    4.9480   -0.4733    0.0776 C   0  0  0  0  0  0  0  0  0  0  0  0
    5.1264    0.9015   -0.0616 C   0  0  0  0  0  0  0  0  0  0  0  0
    4.0324    1.7179   -0.3327 C   0  0  0  0  0  0  0  0  0  0  0  0
    2.7657    1.1545   -0.4702 C   0  0  0  0  0  0  0  0  0  0  0  0
   -1.7893   -1.2060    0.8043 C   0  0  1  0  0  0  0  0  0  0  0  0
   -1.3613   -0.5836    2.0270 O   0  0  0  0  0  0  0  0  0  0  0  0
   -3.3261   -1.0838    0.6603 C   0  0  1  0  0  0  0  0  0  0  0  0
   -3.8876   -0.7132    1.9295 O   0  0  0  0  0  0  0  0  0  0  0  0
   -3.5617    0.0214   -0.3920 C   0  0  1  0  0  0  0  0  0  0  0  0
   -4.6311    0.8662    0.0370 O   0  0  0  0  0  0  0  0  0  0  0  0
   -2.2247    0.7428   -0.4489 C   0  0  2  0  0  0  0  0  0  0  0  0
   -2.0611    1.7947   -1.9347 S   0  0  0  0  0  0  0  0  0  0  0  0
   -1.2806   -0.9938   -1.3006 H   0  0  0  0  0  0  0  0  0  0  0  0
    0.2237    0.3610    0.8082 H   0  0  0  0  0  0  0  0  0  0  0  0
    1.1293   -1.7455    0.1069 H   0  0  0  0  0  0  0  0  0  0  0  0
    1.0916   -1.1517   -1.5607 H   0  0  0  0  0  0  0  0  0  0  0  0
    3.5510   -2.1056    0.0517 H   0  0  0  0  0  0  0  0  0  0  0  0
    5.8010   -1.1144    0.2948 H   0  0  0  0  0  0  0  0  0  0  0  0
    6.1184    1.3393    0.0453 H   0  0  0  0  0  0  0  0  0  0  0  0
    4.1594    2.7922   -0.4406 H   0  0  0  0  0  0  0  0  0  0  0  0
    1.9123    1.8018   -0.6745 H   0  0  0  0  0  0  0  0  0  0  0  0
   -1.4524   -2.2462    0.8205 H   0  0  0  0  0  0  0  0  0  0  0  0
   -2.1885   -0.4409    2.5338 H   0  0  0  0  0  0  0  0  0  0  0  0
   -3.7854   -2.0244    0.3407 H   0  0  0  0  0  0  0  0  0  0  0  0
   -4.4333    0.0854    1.7401 H   0  0  0  0  0  0  0  0  0  0  0  0
   -3.8032   -0.4288   -1.3629 H   0  0  0  0  0  0  0  0  0  0  0  0
   -4.5654    1.6980   -0.4736 H   0  0  0  0  0  0  0  0  0  0  0  0
   -2.1227    1.4029    0.4265 H   0  0  0  0  0  0  0  0  0  0  0  0
   -0.7453    2.0289   -1.7801 H   0  0  0  0  0  0  0  0  0  0  0  0
  1 18  1  6  0  0  0
  1  2  1  0  0  0  0
  1 10  1  0  0  0  0
  2 19  1  0  0  0  0
  3  4  1  0  0  0  0
  3  2  1  0  0  0  0
  3 20  1  0  0  0  0
  4  5  2  0  0  0  0
  5 22  1  0  0  0  0
  5  6  1  0  0  0  0
  6 23  1  0  0  0  0
  7 24  1  0  0  0  0
  7  6  2  0  0  0  0
  8  7  1  0  0  0  0
  9  8  2  0  0  0  0
  9  4  1  0  0  0  0
 10 27  1  6  0  0  0
 10 11  1  0  0  0  0
 11 28  1  0  0  0  0
 12 29  1  6  0  0  0
 12 10  1  0  0  0  0
 12 13  1  0  0  0  0
 14 31  1  6  0  0  0
 14 15  1  0  0  0  0
 14 12  1  0  0  0  0
 16 14  1  0  0  0  0
 16  1  1  0  0  0  0
 16 33  1  1  0  0  0
 17 34  1  0  0  0  0
 17 16  1  0  0  0  0
 21  3  1  0  0  0  0
 25  8  1  0  0  0  0
 26  9  1  0  0  0  0
 30 13  1  0  0  0  0
 32 15  1  0  0  0  0
M  END
