-9.58882
 OpenBabel10231816213D

 66 68  0  0  1  0  0  0  0  0999 V2000
    0.3516    0.0165    0.4849 C   0  0  2  0  0  0  0  0  0  0  0  0
    0.8218   -0.8635   -0.6845 C   0  0  0  0  0  0  0  0  0  0  0  0
   -0.2650   -1.8645   -1.0265 C   0  0  0  0  0  0  0  0  0  0  0  0
   -1.2163   -1.5677   -2.0114 C   0  0  0  0  0  0  0  0  0  0  0  0
   -2.3531   -2.3661   -2.1566 C   0  0  0  0  0  0  0  0  0  0  0  0
   -2.5709   -3.4359   -1.2905 C   0  0  0  0  0  0  0  0  0  0  0  0
   -1.5839   -3.7990   -0.3822 C   0  0  0  0  0  0  0  0  0  0  0  0
   -0.4385   -3.0112   -0.2452 C   0  0  0  0  0  0  0  0  0  0  0  0
   -3.7762   -4.0724   -1.3846 O   0  0  0  0  0  0  0  0  0  0  0  0
   -4.5324   -4.1329   -0.1644 C   0  0  0  0  0  0  0  0  0  0  0  0
   -5.2336   -2.8167    0.2044 C   0  0  0  0  0  0  0  0  0  0  0  0
   -4.2748   -1.6427    0.4648 C   0  0  0  0  0  0  0  0  0  0  0  0
   -4.8958   -0.5877    1.3355 C   0  0  0  0  0  0  0  0  0  0  0  0
   -5.7909   -0.8480    2.1575 O   0  0  0  0  0  0  0  0  0  0  0  0
   -4.4143    0.6853    1.2783 N   0  0  0  0  0  0  0  0  0  0  0  0
   -3.2834    1.1784    0.4859 C   0  0  2  0  0  0  0  0  0  0  0  0
   -1.9620    0.6760    1.0819 C   0  0  0  0  0  0  0  0  0  0  0  0
   -1.8076    0.3811    2.2715 O   0  0  0  0  0  0  0  0  0  0  0  0
   -0.9517    0.5968    0.1701 N   0  0  0  0  0  0  0  0  0  0  0  0
   -3.3126    2.7023    0.4566 C   0  0  0  0  0  0  0  0  0  0  0  0
   -2.4089    3.2715   -0.6148 C   0  0  0  0  0  0  0  0  0  0  0  0
   -1.9268    2.6146   -1.5262 O   0  0  0  0  0  0  0  0  0  0  0  0
   -2.1850    4.6148   -0.5127 N   0  0  0  0  0  0  0  0  0  0  0  0
    1.3256    1.1422    0.8283 C   0  0  2  0  0  0  0  0  0  0  0  0
    1.5269    1.9590   -0.3361 O   0  0  0  0  0  0  0  0  0  0  0  0
    2.6893    0.6409    1.3244 C   0  0  0  0  0  0  0  0  0  0  0  0
    3.5683    1.8169    1.5520 N   0  0  0  0  0  0  0  0  0  0  0  0
    5.2057    1.5066    1.8665 S   0  0  0  0  0  0  0  0  0  0  0  0
    5.2686    0.3277    2.6918 O   0  0  0  0  0  0  0  0  0  0  0  0
    5.7411    2.7768    2.3187 O   0  0  0  0  0  0  0  0  0  0  0  0
    5.9017    1.1490    0.2871 C   0  0  0  0  0  0  0  0  0  0  0  0
    5.9357   -0.1674   -0.1724 C   0  0  0  0  0  0  0  0  0  0  0  0
    6.4972   -0.4500   -1.4185 C   0  0  0  0  0  0  0  0  0  0  0  0
    7.0443    0.5805   -2.1853 C   0  0  0  0  0  0  0  0  0  0  0  0
    7.0366    1.8918   -1.7047 C   0  0  0  0  0  0  0  0  0  0  0  0
    6.4735    2.1752   -0.4608 C   0  0  0  0  0  0  0  0  0  0  0  0
    0.2203   -0.6020    1.3781 H   0  0  0  0  0  0  0  0  0  0  0  0
    1.7458   -1.3926   -0.4210 H   0  0  0  0  0  0  0  0  0  0  0  0
    1.0401   -0.2326   -1.5554 H   0  0  0  0  0  0  0  0  0  0  0  0
   -1.0972   -0.6762   -2.6248 H   0  0  0  0  0  0  0  0  0  0  0  0
   -3.1090   -2.1124   -2.8954 H   0  0  0  0  0  0  0  0  0  0  0  0
   -1.7061   -4.6820    0.2336 H   0  0  0  0  0  0  0  0  0  0  0  0
    0.3018   -3.2679    0.5068 H   0  0  0  0  0  0  0  0  0  0  0  0
   -3.9285   -4.4776    0.6819 H   0  0  0  0  0  0  0  0  0  0  0  0
   -5.3012   -4.9001   -0.3426 H   0  0  0  0  0  0  0  0  0  0  0  0
   -5.8278   -2.9967    1.1084 H   0  0  0  0  0  0  0  0  0  0  0  0
   -5.9429   -2.5392   -0.5863 H   0  0  0  0  0  0  0  0  0  0  0  0
   -3.3819   -2.0088    0.9849 H   0  0  0  0  0  0  0  0  0  0  0  0
   -3.9570   -1.2055   -0.4843 H   0  0  0  0  0  0  0  0  0  0  0  0
   -4.7220    1.2578    2.0565 H   0  0  0  0  0  0  0  0  0  0  0  0
   -3.3775    0.7923   -0.5327 H   0  0  0  0  0  0  0  0  0  0  0  0
   -1.0743    1.0259   -0.7492 H   0  0  0  0  0  0  0  0  0  0  0  0
   -3.0575    3.1187    1.4365 H   0  0  0  0  0  0  0  0  0  0  0  0
   -4.3357    3.0166    0.2203 H   0  0  0  0  0  0  0  0  0  0  0  0
   -1.6585    5.0704   -1.2511 H   0  0  0  0  0  0  0  0  0  0  0  0
   -2.6739    5.1970    0.1529 H   0  0  0  0  0  0  0  0  0  0  0  0
    0.8660    1.7698    1.6030 H   0  0  0  0  0  0  0  0  0  0  0  0
    2.3503    2.4526   -0.1601 H   0  0  0  0  0  0  0  0  0  0  0  0
    2.5650    0.0758    2.2501 H   0  0  0  0  0  0  0  0  0  0  0  0
    3.1536    0.0149    0.5635 H   0  0  0  0  0  0  0  0  0  0  0  0
    3.2469    2.4160    2.3181 H   0  0  0  0  0  0  0  0  0  0  0  0
    5.5206   -0.9649    0.4375 H   0  0  0  0  0  0  0  0  0  0  0  0
    6.5095   -1.4727   -1.7883 H   0  0  0  0  0  0  0  0  0  0  0  0
    7.4831    0.3612   -3.1566 H   0  0  0  0  0  0  0  0  0  0  0  0
    7.4696    2.6941   -2.2957 H   0  0  0  0  0  0  0  0  0  0  0  0
    6.4744    3.1900   -0.0714 H   0  0  0  0  0  0  0  0  0  0  0  0
  1 24  1  0  0  0  0
  1 37  1  1  0  0  0
  2 38  1  0  0  0  0
  2  1  1  0  0  0  0
  3  2  1  0  0  0  0
  3  8  2  0  0  0  0
  4  3  1  0  0  0  0
  5  4  2  0  0  0  0
  5  6  1  0  0  0  0
  6  7  2  0  0  0  0
  7  8  1  0  0  0  0
  7 42  1  0  0  0  0
  8 43  1  0  0  0  0
  9  6  1  0  0  0  0
  9 10  1  0  0  0  0
 10 11  1  0  0  0  0
 10 44  1  0  0  0  0
 11 12  1  0  0  0  0
 11 46  1  0  0  0  0
 12 48  1  0  0  0  0
 12 13  1  0  0  0  0
 13 14  2  0  0  0  0
 15 13  1  0  0  0  0
 15 50  1  0  0  0  0
 16 51  1  6  0  0  0
 16 17  1  0  0  0  0
 16 15  1  0  0  0  0
 17 18  2  0  0  0  0
 19  1  1  0  0  0  0
 19 17  1  0  0  0  0
 20 16  1  0  0  0  0
 20 53  1  0  0  0  0
 21 23  1  0  0  0  0
 21 20  1  0  0  0  0
 22 21  2  0  0  0  0
 23 56  1  0  0  0  0
 24 26  1  0  0  0  0
 24 57  1  1  0  0  0
 25 58  1  0  0  0  0
 25 24  1  0  0  0  0
 26 27  1  0  0  0  0
 26 59  1  0  0  0  0
 27 28  1  0  0  0  0
 27 61  1  0  0  0  0
 28 30  2  0  0  0  0
 28 29  2  0  0  0  0
 31 28  1  0  0  0  0
 32 31  1  0  0  0  0
 32 62  1  0  0  0  0
 33 32  2  0  0  0  0
 34 35  2  0  0  0  0
 34 33  1  0  0  0  0
 35 36  1  0  0  0  0
 36 66  1  0  0  0  0
 36 31  2  0  0  0  0
 39  2  1  0  0  0  0
 40  4  1  0  0  0  0
 41  5  1  0  0  0  0
 45 10  1  0  0  0  0
 47 11  1  0  0  0  0
 49 12  1  0  0  0  0
 52 19  1  0  0  0  0
 54 20  1  0  0  0  0
 55 23  1  0  0  0  0
 60 26  1  0  0  0  0
 63 33  1  0  0  0  0
 64 34  1  0  0  0  0
 65 35  1  0  0  0  0
M  END
