122.512
 OpenBabel10231816213D

 34 35  0  0  1  0  0  0  0  0999 V2000
   -1.1532   -0.7812    0.2060 C   0  0  1  0  0  0  0  0  0  0  0  0
    0.2140   -0.3099    0.4186 N   0  0  0  0  0  0  0  0  0  0  0  0
    1.1341   -0.5714   -0.6819 C   0  0  0  0  0  0  0  0  0  0  0  0
    2.5443   -0.1381   -0.3446 C   0  0  0  0  0  0  0  0  0  0  0  0
    3.4268    0.2404   -1.3655 C   0  0  0  0  0  0  0  0  0  0  0  0
    4.7385    0.6153   -1.0714 C   0  0  0  0  0  0  0  0  0  0  0  0
    5.1869    0.6073    0.2498 C   0  0  0  0  0  0  0  0  0  0  0  0
    4.3282    0.2228    1.2721 C   0  0  0  0  0  0  0  0  0  0  0  0
    3.0207   -0.1582    0.9767 C   0  0  0  0  0  0  0  0  0  0  0  0
   -2.0389   -0.3603    1.4001 C   0  0  1  0  0  0  0  0  0  0  0  0
   -1.8506    1.0165    1.7796 O   0  0  0  0  0  0  0  0  0  0  0  0
   -3.4503   -0.5425    0.8436 C   0  0  1  0  0  0  0  0  0  0  0  0
   -4.4218    0.1553    1.6243 O   0  0  0  0  0  0  0  0  0  0  0  0
   -3.3438    0.0721   -0.5571 C   0  0  1  0  0  0  0  0  0  0  0  0
   -3.4964    1.5009   -0.4378 O   0  0  0  0  0  0  0  0  0  0  0  0
   -1.9068   -0.2241   -1.0347 C   0  0  2  0  0  0  0  0  0  0  0  0
   -1.8843   -1.4221   -2.4194 S   0  0  0  0  0  0  0  0  0  0  0  0
   -1.1463   -1.8800    0.1841 H   0  0  0  0  0  0  0  0  0  0  0  0
    0.2162    0.6847    0.6546 H   0  0  0  0  0  0  0  0  0  0  0  0
    1.1581   -1.6416   -0.9154 H   0  0  0  0  0  0  0  0  0  0  0  0
    0.8125   -0.0256   -1.5752 H   0  0  0  0  0  0  0  0  0  0  0  0
    3.0944    0.2462   -2.4050 H   0  0  0  0  0  0  0  0  0  0  0  0
    5.4120    0.9112   -1.8702 H   0  0  0  0  0  0  0  0  0  0  0  0
    6.2059    0.9003    0.4783 H   0  0  0  0  0  0  0  0  0  0  0  0
    4.6704    0.2132    2.3036 H   0  0  0  0  0  0  0  0  0  0  0  0
    2.3647   -0.4647    1.7913 H   0  0  0  0  0  0  0  0  0  0  0  0
   -1.8604   -0.9700    2.2919 H   0  0  0  0  0  0  0  0  0  0  0  0
   -2.1462    1.5800    1.0343 H   0  0  0  0  0  0  0  0  0  0  0  0
   -3.7151   -1.6039    0.7854 H   0  0  0  0  0  0  0  0  0  0  0  0
   -3.9215    0.6571    2.3009 H   0  0  0  0  0  0  0  0  0  0  0  0
   -4.1359   -0.2768   -1.2262 H   0  0  0  0  0  0  0  0  0  0  0  0
   -4.3254    1.6187    0.0739 H   0  0  0  0  0  0  0  0  0  0  0  0
   -1.4344    0.6977   -1.3949 H   0  0  0  0  0  0  0  0  0  0  0  0
   -2.2964   -0.5696   -3.3700 H   0  0  0  0  0  0  0  0  0  0  0  0
  1 18  1  6  0  0  0
  1  2  1  0  0  0  0
  1 10  1  0  0  0  0
  2 19  1  0  0  0  0
  3  4  1  0  0  0  0
  3  2  1  0  0  0  0
  4  9  2  0  0  0  0
  5  6  2  0  0  0  0
  5  4  1  0  0  0  0
  6  7  1  0  0  0  0
  7 24  1  0  0  0  0
  7  8  2  0  0  0  0
  8 25  1  0  0  0  0
  9  8  1  0  0  0  0
  9 26  1  0  0  0  0
 10 11  1  0  0  0  0
 10 27  1  1  0  0  0
 12 29  1  6  0  0  0
 12 10  1  0  0  0  0
 12 13  1  0  0  0  0
 13 30  1  0  0  0  0
 14 31  1  6  0  0  0
 14 15  1  0  0  0  0
 14 12  1  0  0  0  0
 15 32  1  0  0  0  0
 16 33  1  6  0  0  0
 16 14  1  0  0  0  0
 16  1  1  0  0  0  0
 17 16  1  0  0  0  0
 20  3  1  0  0  0  0
 21  3  1  0  0  0  0
 22  5  1  0  0  0  0
 23  6  1  0  0  0  0
 28 11  1  0  0  0  0
 34 17  1  0  0  0  0
M  END
