128.6
 OpenBabel10231816213D

 34 35  0  0  1  0  0  0  0  0999 V2000
   -1.2990   -0.6474   -0.3836 C   0  0  1  0  0  0  0  0  0  0  0  0
    0.0206   -0.0634   -0.1338 N   0  0  0  0  0  0  0  0  0  0  0  0
    1.1425   -0.8811   -0.5897 C   0  0  0  0  0  0  0  0  0  0  0  0
    2.4654   -0.2171   -0.2736 C   0  0  0  0  0  0  0  0  0  0  0  0
    2.5822    1.1849   -0.2013 C   0  0  0  0  0  0  0  0  0  0  0  0
    3.8001    1.7943    0.0774 C   0  0  0  0  0  0  0  0  0  0  0  0
    4.9370    1.0150    0.2679 C   0  0  0  0  0  0  0  0  0  0  0  0
    4.8473   -0.3754    0.1775 C   0  0  0  0  0  0  0  0  0  0  0  0
    3.6241   -0.9858   -0.0948 C   0  0  0  0  0  0  0  0  0  0  0  0
   -1.9849   -1.2181    0.8983 C   0  0  1  0  0  0  0  0  0  0  0  0
   -1.1145   -1.3170    2.0229 O   0  0  0  0  0  0  0  0  0  0  0  0
   -3.1842   -0.2961    1.1701 C   0  0  1  0  0  0  0  0  0  0  0  0
   -2.8039    0.8774    1.9018 O   0  0  0  0  0  0  0  0  0  0  0  0
   -3.6108    0.1097   -0.2417 C   0  0  1  0  0  0  0  0  0  0  0  0
   -4.5020    1.2225   -0.1844 O   0  0  0  0  0  0  0  0  0  0  0  0
   -2.2630    0.4663   -0.8722 C   0  0  2  0  0  0  0  0  0  0  0  0
   -2.3742    0.6006   -2.6875 S   0  0  0  0  0  0  0  0  0  0  0  0
   -1.2447   -1.4516   -1.1292 H   0  0  0  0  0  0  0  0  0  0  0  0
    0.1105    0.0888    0.8770 H   0  0  0  0  0  0  0  0  0  0  0  0
    1.1037   -1.8639   -0.1070 H   0  0  0  0  0  0  0  0  0  0  0  0
    1.0899   -1.0256   -1.6760 H   0  0  0  0  0  0  0  0  0  0  0  0
    1.7021    1.8140   -0.3544 H   0  0  0  0  0  0  0  0  0  0  0  0
    3.8590    2.8759    0.1448 H   0  0  0  0  0  0  0  0  0  0  0  0
    5.8880    1.4902    0.4827 H   0  0  0  0  0  0  0  0  0  0  0  0
    5.7397   -0.9800    0.3202 H   0  0  0  0  0  0  0  0  0  0  0  0
    3.5796   -2.0712   -0.1650 H   0  0  0  0  0  0  0  0  0  0  0  0
   -2.3532   -2.2273    0.6743 H   0  0  0  0  0  0  0  0  0  0  0  0
   -0.5029   -2.0563    1.8666 H   0  0  0  0  0  0  0  0  0  0  0  0
   -3.9805   -0.7914    1.7348 H   0  0  0  0  0  0  0  0  0  0  0  0
   -3.4975    1.5385    1.7051 H   0  0  0  0  0  0  0  0  0  0  0  0
   -4.1039   -0.7259   -0.7513 H   0  0  0  0  0  0  0  0  0  0  0  0
   -4.5877    1.5550   -1.0994 H   0  0  0  0  0  0  0  0  0  0  0  0
   -1.9446    1.4571   -0.5185 H   0  0  0  0  0  0  0  0  0  0  0  0
   -1.1402    1.1043   -2.8581 H   0  0  0  0  0  0  0  0  0  0  0  0
  1 18  1  6  0  0  0
  1  2  1  0  0  0  0
  1 10  1  0  0  0  0
  2 19  1  0  0  0  0
  3  4  1  0  0  0  0
  3  2  1  0  0  0  0
  3 20  1  0  0  0  0
  4  5  2  0  0  0  0
  4  9  1  0  0  0  0
  5  6  1  0  0  0  0
  6 23  1  0  0  0  0
  6  7  2  0  0  0  0
  7 24  1  0  0  0  0
  8  7  1  0  0  0  0
  8 25  1  0  0  0  0
  9  8  2  0  0  0  0
 10 27  1  6  0  0  0
 10 12  1  0  0  0  0
 10 11  1  0  0  0  0
 12 29  1  1  0  0  0
 12 13  1  0  0  0  0
 14 31  1  6  0  0  0
 14 15  1  0  0  0  0
 14 12  1  0  0  0  0
 16 33  1  1  0  0  0
 16  1  1  0  0  0  0
 16 14  1  0  0  0  0
 17 16  1  0  0  0  0
 21  3  1  0  0  0  0
 22  5  1  0  0  0  0
 26  9  1  0  0  0  0
 28 11  1  0  0  0  0
 30 13  1  0  0  0  0
 32 15  1  0  0  0  0
 34 17  1  0  0  0  0
M  END
