-57.0639
 OpenBabel10231816213D

 39 40  0  0  0  0  0  0  0  0999 V2000
    0.6814    0.1905    1.9595 S   0  0  0  0  0  0  0  0  0  0  0  0
    0.2911    1.3445    1.1853 O   0  0  0  0  0  0  0  0  0  0  0  0
   -0.0720   -0.1739    3.1437 O   0  0  0  0  0  0  0  0  0  0  0  0
    2.2341    0.4083    2.4925 N   0  0  0  0  0  0  0  0  0  0  0  0
    3.2778    0.8892    1.6982 C   0  0  0  0  0  0  0  0  0  0  0  0
    3.1759    1.0301    0.4891 O   0  0  0  0  0  0  0  0  0  0  0  0
    4.5469    1.1372    2.4754 C   0  0  0  0  0  0  0  0  0  0  0  0
    5.6625    1.6487    1.5872 C   0  0  0  0  0  0  0  0  0  0  0  0
    0.6841   -1.2314    0.9327 C   0  0  0  0  0  0  0  0  0  0  0  0
   -0.4290   -1.5332    0.1470 C   0  0  0  0  0  0  0  0  0  0  0  0
   -1.5724   -0.7139    0.1156 N   0  0  0  0  0  0  0  0  0  0  0  0
   -2.2288   -0.1731   -1.0075 C   0  0  0  0  0  0  0  0  0  0  0  0
   -3.4513    0.4696   -0.7944 C   0  0  0  0  0  0  0  0  0  0  0  0
   -4.2108    0.9524   -1.8668 C   0  0  0  0  0  0  0  0  0  0  0  0
   -3.7346    0.7702   -3.1727 C   0  0  0  0  0  0  0  0  0  0  0  0
   -2.5102    0.1435   -3.3953 C   0  0  0  0  0  0  0  0  0  0  0  0
   -1.7634   -0.3196   -2.3162 C   0  0  0  0  0  0  0  0  0  0  0  0
   -5.5320    1.6259   -1.6189 C   0  0  0  0  0  0  0  0  0  0  0  0
   -5.7746    1.8826   -0.3024 F   0  0  0  0  0  0  0  0  0  0  0  0
   -5.6375    2.8239   -2.2566 F   0  0  0  0  0  0  0  0  0  0  0  0
   -6.5823    0.8752   -2.0508 F   0  0  0  0  0  0  0  0  0  0  0  0
   -0.3645   -2.6685   -0.6700 C   0  0  0  0  0  0  0  0  0  0  0  0
    0.7769   -3.4498   -0.6610 C   0  0  0  0  0  0  0  0  0  0  0  0
    1.8506   -3.1850    0.1119 N   0  0  0  0  0  0  0  0  0  0  0  0
    1.7779   -2.0787    0.8917 C   0  0  0  0  0  0  0  0  0  0  0  0
    2.3321    0.3014    3.4991 H   0  0  0  0  0  0  0  0  0  0  0  0
    4.3346    1.8607    3.2696 H   0  0  0  0  0  0  0  0  0  0  0  0
    4.8464    0.1911    2.9401 H   0  0  0  0  0  0  0  0  0  0  0  0
    6.5731    1.8030    2.1718 H   0  0  0  0  0  0  0  0  0  0  0  0
    5.3842    2.5989    1.1196 H   0  0  0  0  0  0  0  0  0  0  0  0
    5.8828    0.9340    0.7871 H   0  0  0  0  0  0  0  0  0  0  0  0
   -1.6965   -0.1073    0.9246 H   0  0  0  0  0  0  0  0  0  0  0  0
   -3.8222    0.5887    0.2236 H   0  0  0  0  0  0  0  0  0  0  0  0
   -4.3168    1.1222   -4.0221 H   0  0  0  0  0  0  0  0  0  0  0  0
   -2.1346    0.0120   -4.4067 H   0  0  0  0  0  0  0  0  0  0  0  0
   -0.7992   -0.7770   -2.5180 H   0  0  0  0  0  0  0  0  0  0  0  0
   -1.2006   -2.9462   -1.3039 H   0  0  0  0  0  0  0  0  0  0  0  0
    0.8562   -4.3280   -1.2954 H   0  0  0  0  0  0  0  0  0  0  0  0
    2.6649   -1.9182    1.4933 H   0  0  0  0  0  0  0  0  0  0  0  0
  1  4  1  0  0  0  0
  1  3  2  0  0  0  0
  2  1  2  0  0  0  0
  4 26  1  0  0  0  0
  5  7  1  0  0  0  0
  5  4  1  0  0  0  0
  6  5  2  0  0  0  0
  7 28  1  0  0  0  0
  7 27  1  0  0  0  0
  8 29  1  0  0  0  0
  8  7  1  0  0  0  0
  9  1  1  0  0  0  0
 10  9  2  0  0  0  0
 11 10  1  0  0  0  0
 11 32  1  0  0  0  0
 12 13  1  0  0  0  0
 12 11  1  0  0  0  0
 13 33  1  0  0  0  0
 14 18  1  0  0  0  0
 14 13  2  0  0  0  0
 15 14  1  0  0  0  0
 16 15  2  0  0  0  0
 16 17  1  0  0  0  0
 17 12  2  0  0  0  0
 18 19  1  0  0  0  0
 20 18  1  0  0  0  0
 21 18  1  0  0  0  0
 22 23  2  0  0  0  0
 22 10  1  0  0  0  0
 23 24  1  0  0  0  0
 24 25  2  0  0  0  0
 25  9  1  0  0  0  0
 25 39  1  0  0  0  0
 30  8  1  0  0  0  0
 31  8  1  0  0  0  0
 34 15  1  0  0  0  0
 35 16  1  0  0  0  0
 36 17  1  0  0  0  0
 37 22  1  0  0  0  0
 38 23  1  0  0  0  0
M  END
