42.4394
 OpenBabel10231816213D

 61 65  0  0  0  0  0  0  0  0999 V2000
    8.3499   -1.7151   -1.7932 N   0  0  0  0  0  0  0  0  0  0  0  0
    7.1105   -1.9506   -2.2653 C   0  0  0  0  0  0  0  0  0  0  0  0
    5.9772   -1.2751   -1.8391 C   0  0  0  0  0  0  0  0  0  0  0  0
    6.0884   -0.2630   -0.8821 C   0  0  0  0  0  0  0  0  0  0  0  0
    7.3738   -0.0262   -0.3707 C   0  0  0  0  0  0  0  0  0  0  0  0
    8.4472   -0.7614   -0.8467 C   0  0  0  0  0  0  0  0  0  0  0  0
    4.9649    0.4248   -0.4307 N   0  0  0  0  0  0  0  0  0  0  0  0
    5.1137    1.3263    0.7092 C   0  0  0  0  0  0  0  0  0  0  0  0
    3.7630    1.9255    1.0920 C   0  0  0  0  0  0  0  0  0  0  0  0
    2.6381    0.9184    0.8253 C   0  0  0  0  0  0  0  0  0  0  0  0
    2.5423    0.6368   -0.6845 C   0  0  0  0  0  0  0  0  0  0  0  0
    3.9048    0.7997   -1.3706 C   0  0  0  0  0  0  0  0  0  0  0  0
    1.3308    1.4276    1.3692 C   0  0  0  0  0  0  0  0  0  0  0  0
    1.1938    2.6278    1.6881 O   0  0  0  0  0  0  0  0  0  0  0  0
    0.2838    0.5551    1.4699 N   0  0  0  0  0  0  0  0  0  0  0  0
   -1.0223    1.0828    1.9124 C   0  0  0  0  0  0  0  0  0  0  0  0
   -2.1570    0.3289    1.2320 C   0  0  0  0  0  0  0  0  0  0  0  0
   -2.1096   -1.1256    1.5654 N   0  0  0  0  0  0  0  0  0  0  0  0
   -0.7520   -1.5976    1.9806 C   0  0  0  0  0  0  0  0  0  0  0  0
    0.3342   -0.8856    1.1863 C   0  0  0  0  0  0  0  0  0  0  0  0
   -2.7980   -2.1832    0.4265 S   0  0  0  0  0  0  0  0  0  0  0  0
   -2.9783   -3.4495    1.1154 O   0  0  0  0  0  0  0  0  0  0  0  0
   -2.0178   -2.0999   -0.7847 O   0  0  0  0  0  0  0  0  0  0  0  0
   -4.3823   -1.4550    0.1515 C   0  0  0  0  0  0  0  0  0  0  0  0
   -4.5538   -0.5805   -0.9251 C   0  0  0  0  0  0  0  0  0  0  0  0
   -5.7886    0.0478   -1.1270 C   0  0  0  0  0  0  0  0  0  0  0  0
   -6.8682   -0.2309   -0.2563 C   0  0  0  0  0  0  0  0  0  0  0  0
   -6.6787   -1.1387    0.8026 C   0  0  0  0  0  0  0  0  0  0  0  0
   -5.4375   -1.7493    1.0047 C   0  0  0  0  0  0  0  0  0  0  0  0
   -8.1060    0.3979   -0.4694 C   0  0  0  0  0  0  0  0  0  0  0  0
   -8.2632    1.2926   -1.5316 C   0  0  0  0  0  0  0  0  0  0  0  0
   -7.2012    1.5701   -2.3877 C   0  0  0  0  0  0  0  0  0  0  0  0
   -5.9669    0.9508   -2.1879 C   0  0  0  0  0  0  0  0  0  0  0  0
   -9.7826    2.0598   -1.7839 Cl  0  0  0  0  0  0  0  0  0  0  0  0
    7.0405   -2.7312   -3.0184 H   0  0  0  0  0  0  0  0  0  0  0  0
    5.0126   -1.5695   -2.2331 H   0  0  0  0  0  0  0  0  0  0  0  0
    7.5629    0.7110    0.3988 H   0  0  0  0  0  0  0  0  0  0  0  0
    9.4485   -0.5830   -0.4670 H   0  0  0  0  0  0  0  0  0  0  0  0
    5.5085    0.7500    1.5534 H   0  0  0  0  0  0  0  0  0  0  0  0
    5.8225    2.1280    0.4756 H   0  0  0  0  0  0  0  0  0  0  0  0
    3.7826    2.2303    2.1432 H   0  0  0  0  0  0  0  0  0  0  0  0
    3.5726    2.8393    0.5081 H   0  0  0  0  0  0  0  0  0  0  0  0
    2.9110   -0.0053    1.3491 H   0  0  0  0  0  0  0  0  0  0  0  0
    1.8147    1.3049   -1.1654 H   0  0  0  0  0  0  0  0  0  0  0  0
    2.1690   -0.3828   -0.8389 H   0  0  0  0  0  0  0  0  0  0  0  0
    4.0335    1.8489   -1.6677 H   0  0  0  0  0  0  0  0  0  0  0  0
    3.9313    0.2153   -2.2890 H   0  0  0  0  0  0  0  0  0  0  0  0
   -1.1043    0.9877    3.0050 H   0  0  0  0  0  0  0  0  0  0  0  0
   -1.0748    2.1482    1.6730 H   0  0  0  0  0  0  0  0  0  0  0  0
   -3.1221    0.7103    1.5763 H   0  0  0  0  0  0  0  0  0  0  0  0
   -2.0836    0.4777    0.1491 H   0  0  0  0  0  0  0  0  0  0  0  0
   -0.6156   -1.3997    3.0497 H   0  0  0  0  0  0  0  0  0  0  0  0
   -0.7003   -2.6741    1.8314 H   0  0  0  0  0  0  0  0  0  0  0  0
    0.1679   -1.0353    0.1129 H   0  0  0  0  0  0  0  0  0  0  0  0
    1.3178   -1.2812    1.4377 H   0  0  0  0  0  0  0  0  0  0  0  0
   -3.7193   -0.3849   -1.5966 H   0  0  0  0  0  0  0  0  0  0  0  0
   -7.4985   -1.3746    1.4769 H   0  0  0  0  0  0  0  0  0  0  0  0
   -5.3024   -2.4499    1.8300 H   0  0  0  0  0  0  0  0  0  0  0  0
   -8.9508    0.1945    0.1873 H   0  0  0  0  0  0  0  0  0  0  0  0
   -7.3355    2.2691   -3.2139 H   0  0  0  0  0  0  0  0  0  0  0  0
   -5.1409    1.1708   -2.8624 H   0  0  0  0  0  0  0  0  0  0  0  0
  1  6  2  0  0  0  0
  2  3  2  0  0  0  0
  2  1  1  0  0  0  0
  3  4  1  0  0  0  0
  4  7  1  0  0  0  0
  4  5  2  0  0  0  0
  5 37  1  0  0  0  0
  6 38  1  0  0  0  0
  6  5  1  0  0  0  0
  7  8  1  0  0  0  0
  8  9  1  0  0  0  0
  8 39  1  0  0  0  0
  9 41  1  0  0  0  0
 10  9  1  0  0  0  0
 10 43  1  0  0  0  0
 10 13  1  0  0  0  0
 11 10  1  0  0  0  0
 12 11  1  0  0  0  0
 12  7  1  0  0  0  0
 13 15  1  0  0  0  0
 13 14  2  0  0  0  0
 15 16  1  0  0  0  0
 16 48  1  0  0  0  0
 17 18  1  0  0  0  0
 17 50  1  0  0  0  0
 17 16  1  0  0  0  0
 18 19  1  0  0  0  0
 19 52  1  0  0  0  0
 20 55  1  0  0  0  0
 20 15  1  0  0  0  0
 20 19  1  0  0  0  0
 21 22  2  0  0  0  0
 21 18  1  0  0  0  0
 23 21  2  0  0  0  0
 24 21  1  0  0  0  0
 24 29  2  0  0  0  0
 25 24  1  0  0  0  0
 26 25  2  0  0  0  0
 26 27  1  0  0  0  0
 27 28  2  0  0  0  0
 28 29  1  0  0  0  0
 28 57  1  0  0  0  0
 29 58  1  0  0  0  0
 30 27  1  0  0  0  0
 30 59  1  0  0  0  0
 31 30  2  0  0  0  0
 32 33  2  0  0  0  0
 32 31  1  0  0  0  0
 33 26  1  0  0  0  0
 34 31  1  0  0  0  0
 35  2  1  0  0  0  0
 36  3  1  0  0  0  0
 40  8  1  0  0  0  0
 42  9  1  0  0  0  0
 44 11  1  0  0  0  0
 45 11  1  0  0  0  0
 46 12  1  0  0  0  0
 47 12  1  0  0  0  0
 49 16  1  0  0  0  0
 51 17  1  0  0  0  0
 53 19  1  0  0  0  0
 54 20  1  0  0  0  0
 56 25  1  0  0  0  0
 60 32  1  0  0  0  0
 61 33  1  0  0  0  0
M  END
