-32.0572
 OpenBabel10231816213D

 24 23  0  0  1  0  0  0  0  0999 V2000
   -0.5660   -1.0103    0.1005 C   0  0  2  0  0  0  0  0  0  0  0  0
   -1.4808   -1.9925    0.8449 C   0  0  0  0  0  0  0  0  0  0  0  0
   -2.5365   -1.6635    1.3743 O   0  0  0  0  0  0  0  0  0  0  0  0
   -1.0283   -3.2659    0.8686 O   0  0  0  0  0  0  0  0  0  0  0  0
    0.6948   -0.7265    0.9222 C   0  0  0  0  0  0  0  0  0  0  0  0
    1.6601    0.2319    0.2210 C   0  0  0  0  0  0  0  0  0  0  0  0
    2.9873    0.3227    0.9301 C   0  0  0  0  0  0  0  0  0  0  0  0
    3.3255   -0.3703    1.8765 O   0  0  0  0  0  0  0  0  0  0  0  0
    3.7992    1.2562    0.3832 O   0  0  0  0  0  0  0  0  0  0  0  0
   -1.3463    0.1980   -0.1594 N   0  0  0  0  0  0  0  0  0  0  0  0
   -1.1997    0.9295   -1.3097 C   0  0  0  0  0  0  0  0  0  0  0  0
   -0.3111    0.7184   -2.1291 O   0  0  0  0  0  0  0  0  0  0  0  0
   -2.1856    2.0536   -1.4534 C   0  0  0  0  0  0  0  0  0  0  0  0
   -0.3078   -1.4622   -0.8644 H   0  0  0  0  0  0  0  0  0  0  0  0
   -0.1801   -3.4112    0.4072 H   0  0  0  0  0  0  0  0  0  0  0  0
    0.4246   -0.3161    1.9043 H   0  0  0  0  0  0  0  0  0  0  0  0
    1.2082   -1.6755    1.1263 H   0  0  0  0  0  0  0  0  0  0  0  0
    1.8563   -0.1128   -0.7998 H   0  0  0  0  0  0  0  0  0  0  0  0
    1.2266    1.2372    0.1943 H   0  0  0  0  0  0  0  0  0  0  0  0
    3.4026    1.7219   -0.3792 H   0  0  0  0  0  0  0  0  0  0  0  0
   -2.1645    0.3448    0.4299 H   0  0  0  0  0  0  0  0  0  0  0  0
   -1.9024    2.8744   -0.7895 H   0  0  0  0  0  0  0  0  0  0  0  0
   -3.1949    1.7105   -1.2106 H   0  0  0  0  0  0  0  0  0  0  0  0
   -2.1815    2.4078   -2.4883 H   0  0  0  0  0  0  0  0  0  0  0  0
  1 14  1  6  0  0  0
  1  2  1  0  0  0  0
  1  5  1  0  0  0  0
  2  4  1  0  0  0  0
  2  3  2  0  0  0  0
  5 17  1  0  0  0  0
  5 16  1  0  0  0  0
  6  5  1  0  0  0  0
  6  7  1  0  0  0  0
  7  8  2  0  0  0  0
  9  7  1  0  0  0  0
 10  1  1  0  0  0  0
 10 21  1  0  0  0  0
 11 10  1  0  0  0  0
 12 11  2  0  0  0  0
 13 11  1  0  0  0  0
 13 23  1  0  0  0  0
 13 22  1  0  0  0  0
 15  4  1  0  0  0  0
 18  6  1  0  0  0  0
 19  6  1  0  0  0  0
 20  9  1  0  0  0  0
 24 13  1  0  0  0  0
M  END
