37.9823
 OpenBabel10231816213D

 61 65  0  0  0  0  0  0  0  0999 V2000
    8.1852    2.2048    0.6234 N   0  0  0  0  0  0  0  0  0  0  0  0
    7.0489    2.2385    1.3429 C   0  0  0  0  0  0  0  0  0  0  0  0
    6.0111    1.3417    1.1898 C   0  0  0  0  0  0  0  0  0  0  0  0
    6.0994    0.3180    0.2343 C   0  0  0  0  0  0  0  0  0  0  0  0
    7.2950    0.2552   -0.4879 C   0  0  0  0  0  0  0  0  0  0  0  0
    8.2814    1.2092   -0.2766 C   0  0  0  0  0  0  0  0  0  0  0  0
    5.0773   -0.6081    0.0306 N   0  0  0  0  0  0  0  0  0  0  0  0
    3.8596   -0.5454    0.8331 C   0  0  0  0  0  0  0  0  0  0  0  0
    2.8985    0.4919    0.2442 C   0  0  0  0  0  0  0  0  0  0  0  0
    2.5407    0.1450   -1.2082 C   0  0  0  0  0  0  0  0  0  0  0  0
    3.8204   -0.1207   -2.0249 C   0  0  0  0  0  0  0  0  0  0  0  0
    4.7933   -1.0792   -1.3288 C   0  0  0  0  0  0  0  0  0  0  0  0
    1.5968   -1.0414   -1.2502 C   0  0  0  0  0  0  0  0  0  0  0  0
    2.0013   -2.1713   -1.5938 O   0  0  0  0  0  0  0  0  0  0  0  0
    0.2912   -0.8784   -0.8844 N   0  0  0  0  0  0  0  0  0  0  0  0
   -0.5580   -2.0750   -0.8510 C   0  0  0  0  0  0  0  0  0  0  0  0
   -1.8821   -1.8221   -0.1399 C   0  0  0  0  0  0  0  0  0  0  0  0
   -1.6555   -0.9898    1.0572 N   0  0  0  0  0  0  0  0  0  0  0  0
   -1.0315    0.3251    0.8273 C   0  0  0  0  0  0  0  0  0  0  0  0
   -0.3694    0.3883   -0.5477 C   0  0  0  0  0  0  0  0  0  0  0  0
   -2.7751   -1.1137    2.2853 S   0  0  0  0  0  0  0  0  0  0  0  0
   -2.2849   -0.3231    3.3985 O   0  0  0  0  0  0  0  0  0  0  0  0
   -3.1026   -2.5120    2.4331 O   0  0  0  0  0  0  0  0  0  0  0  0
   -4.1893   -0.2710    1.5923 C   0  0  0  0  0  0  0  0  0  0  0  0
   -5.0151   -0.9113    0.6627 C   0  0  0  0  0  0  0  0  0  0  0  0
   -6.0980   -0.2239    0.0927 C   0  0  0  0  0  0  0  0  0  0  0  0
   -6.3650    1.1133    0.4753 C   0  0  0  0  0  0  0  0  0  0  0  0
   -5.5303    1.7333    1.4213 C   0  0  0  0  0  0  0  0  0  0  0  0
   -4.4500    1.0415    1.9764 C   0  0  0  0  0  0  0  0  0  0  0  0
   -7.4552    1.7900   -0.0968 C   0  0  0  0  0  0  0  0  0  0  0  0
   -8.2643    1.1468   -1.0366 C   0  0  0  0  0  0  0  0  0  0  0  0
   -8.0000   -0.1669   -1.4176 C   0  0  0  0  0  0  0  0  0  0  0  0
   -6.9222   -0.8498   -0.8559 C   0  0  0  0  0  0  0  0  0  0  0  0
   -9.5967    1.9832   -1.7331 Cl  0  0  0  0  0  0  0  0  0  0  0  0
    6.9817    3.0392    2.0730 H   0  0  0  0  0  0  0  0  0  0  0  0
    5.1300    1.4694    1.8075 H   0  0  0  0  0  0  0  0  0  0  0  0
    7.4840   -0.5371   -1.2006 H   0  0  0  0  0  0  0  0  0  0  0  0
    9.2049    1.1812   -0.8472 H   0  0  0  0  0  0  0  0  0  0  0  0
    4.0927   -0.3421    1.8801 H   0  0  0  0  0  0  0  0  0  0  0  0
    3.3860   -1.5323    0.8109 H   0  0  0  0  0  0  0  0  0  0  0  0
    2.0084    0.5469    0.8746 H   0  0  0  0  0  0  0  0  0  0  0  0
    3.3590    1.4874    0.2572 H   0  0  0  0  0  0  0  0  0  0  0  0
    2.0199    0.9894   -1.6810 H   0  0  0  0  0  0  0  0  0  0  0  0
    4.3288    0.8369   -2.1905 H   0  0  0  0  0  0  0  0  0  0  0  0
    3.5597   -0.5251   -3.0092 H   0  0  0  0  0  0  0  0  0  0  0  0
    5.6963   -1.1968   -1.9290 H   0  0  0  0  0  0  0  0  0  0  0  0
    4.3488   -2.0759   -1.2518 H   0  0  0  0  0  0  0  0  0  0  0  0
   -0.7187   -2.4076   -1.8855 H   0  0  0  0  0  0  0  0  0  0  0  0
   -0.0016   -2.8745   -0.3453 H   0  0  0  0  0  0  0  0  0  0  0  0
   -2.3056   -2.7787    0.1666 H   0  0  0  0  0  0  0  0  0  0  0  0
   -2.5935   -1.3268   -0.8109 H   0  0  0  0  0  0  0  0  0  0  0  0
   -0.2841    0.4686    1.6150 H   0  0  0  0  0  0  0  0  0  0  0  0
   -1.7700    1.1260    0.9073 H   0  0  0  0  0  0  0  0  0  0  0  0
   -1.1373    0.5682   -1.3140 H   0  0  0  0  0  0  0  0  0  0  0  0
    0.3244    1.2241   -0.5979 H   0  0  0  0  0  0  0  0  0  0  0  0
   -4.8075   -1.9389    0.3719 H   0  0  0  0  0  0  0  0  0  0  0  0
   -5.7154    2.7598    1.7319 H   0  0  0  0  0  0  0  0  0  0  0  0
   -3.8026    1.5350    2.7027 H   0  0  0  0  0  0  0  0  0  0  0  0
   -7.6799    2.8181    0.1862 H   0  0  0  0  0  0  0  0  0  0  0  0
   -8.6390   -0.6592   -2.1523 H   0  0  0  0  0  0  0  0  0  0  0  0
   -6.7241   -1.8781   -1.1568 H   0  0  0  0  0  0  0  0  0  0  0  0
  1  2  2  0  0  0  0
  2 35  1  0  0  0  0
  3  2  1  0  0  0  0
  3 36  1  0  0  0  0
  4  3  2  0  0  0  0
  5  6  2  0  0  0  0
  5  4  1  0  0  0  0
  6  1  1  0  0  0  0
  7  4  1  0  0  0  0
  7  8  1  0  0  0  0
  8 39  1  0  0  0  0
  9 42  1  0  0  0  0
  9  8  1  0  0  0  0
  9 41  1  0  0  0  0
 10  9  1  0  0  0  0
 11 12  1  0  0  0  0
 11 10  1  0  0  0  0
 12 47  1  0  0  0  0
 12  7  1  0  0  0  0
 13 10  1  0  0  0  0
 13 15  1  0  0  0  0
 14 13  2  0  0  0  0
 15 16  1  0  0  0  0
 15 20  1  0  0  0  0
 16 49  1  0  0  0  0
 16 17  1  0  0  0  0
 17 50  1  0  0  0  0
 17 18  1  0  0  0  0
 18 21  1  0  0  0  0
 19 53  1  0  0  0  0
 19 18  1  0  0  0  0
 19 52  1  0  0  0  0
 20 19  1  0  0  0  0
 21 23  2  0  0  0  0
 21 22  2  0  0  0  0
 24 29  1  0  0  0  0
 24 21  1  0  0  0  0
 25 24  2  0  0  0  0
 26 27  1  0  0  0  0
 26 25  1  0  0  0  0
 27 28  1  0  0  0  0
 28 57  1  0  0  0  0
 28 29  2  0  0  0  0
 29 58  1  0  0  0  0
 30 59  1  0  0  0  0
 30 27  2  0  0  0  0
 31 30  1  0  0  0  0
 32 31  2  0  0  0  0
 32 33  1  0  0  0  0
 33 26  2  0  0  0  0
 34 31  1  0  0  0  0
 37  5  1  0  0  0  0
 38  6  1  0  0  0  0
 40  8  1  0  0  0  0
 43 10  1  0  0  0  0
 44 11  1  0  0  0  0
 45 11  1  0  0  0  0
 46 12  1  0  0  0  0
 48 16  1  0  0  0  0
 51 17  1  0  0  0  0
 54 20  1  0  0  0  0
 55 20  1  0  0  0  0
 56 25  1  0  0  0  0
 60 32  1  0  0  0  0
 61 33  1  0  0  0  0
M  END
