-13.3997
 OpenBabel10231816213D

 39 41  0  0  1  0  0  0  0  0999 V2000
   -3.5915   -1.0797   -1.5434 N   0  0  0  0  0  0  0  0  0  0  0  0
   -2.3768   -1.4093   -2.0127 C   0  0  0  0  0  0  0  0  0  0  0  0
   -1.1849   -1.1454   -1.4255 N   0  0  0  0  0  0  0  0  0  0  0  0
   -1.1405   -0.4950   -0.2318 C   0  0  0  0  0  0  0  0  0  0  0  0
   -2.3644   -0.1151    0.3384 C   0  0  0  0  0  0  0  0  0  0  0  0
   -3.5037   -0.4446   -0.3696 C   0  0  0  0  0  0  0  0  0  0  0  0
   -4.5761    0.0016    0.3482 O   0  0  0  0  0  0  0  0  0  0  0  0
   -4.0175    0.5763    1.4578 C   0  0  0  0  0  0  0  0  0  0  0  0
   -2.6993    0.5470    1.5019 N   0  0  0  0  0  0  0  0  0  0  0  0
   -4.9631    1.1417    2.4410 C   0  0  0  0  0  0  0  0  0  0  0  0
    0.0785   -0.2229    0.3828 N   0  0  0  0  0  0  0  0  0  0  0  0
    1.2901   -0.2660   -0.4296 C   0  0  1  0  0  0  0  0  0  0  0  0
    1.3895    0.8691   -1.4564 C   0  0  0  0  0  0  0  0  0  0  0  0
    1.3086    2.2524   -0.8795 C   0  0  0  0  0  0  0  0  0  0  0  0
    0.8431    2.5967    0.1935 O   0  0  0  0  0  0  0  0  0  0  0  0
    1.7533    3.1827   -1.7514 O   0  0  0  0  0  0  0  0  0  0  0  0
    2.5304   -0.3760    0.4555 C   0  0  0  0  0  0  0  0  0  0  0  0
    3.5300   -1.3097    0.1235 C   0  0  0  0  0  0  0  0  0  0  0  0
    4.6810   -1.4407    0.9041 C   0  0  0  0  0  0  0  0  0  0  0  0
    4.8570   -0.6358    2.0260 C   0  0  0  0  0  0  0  0  0  0  0  0
    3.8824    0.2973    2.3681 C   0  0  0  0  0  0  0  0  0  0  0  0
    2.7287    0.4256    1.5906 C   0  0  0  0  0  0  0  0  0  0  0  0
   -2.3179   -2.1137   -3.3347 C   0  0  0  0  0  0  0  0  0  0  0  0
   -5.5773    1.9204    1.9791 H   0  0  0  0  0  0  0  0  0  0  0  0
   -5.6237    0.3600    2.8268 H   0  0  0  0  0  0  0  0  0  0  0  0
   -4.4256    1.5835    3.2848 H   0  0  0  0  0  0  0  0  0  0  0  0
    0.0013    0.5626    1.0283 H   0  0  0  0  0  0  0  0  0  0  0  0
    1.2657   -1.2034   -1.0036 H   0  0  0  0  0  0  0  0  0  0  0  0
    2.3383    0.7808   -2.0003 H   0  0  0  0  0  0  0  0  0  0  0  0
    0.5789    0.7894   -2.1900 H   0  0  0  0  0  0  0  0  0  0  0  0
    1.6052    4.0344   -1.2890 H   0  0  0  0  0  0  0  0  0  0  0  0
    3.4133   -1.9561   -0.7443 H   0  0  0  0  0  0  0  0  0  0  0  0
    5.4364   -2.1756    0.6390 H   0  0  0  0  0  0  0  0  0  0  0  0
    5.7493   -0.7398    2.6374 H   0  0  0  0  0  0  0  0  0  0  0  0
    4.0133    0.9238    3.2465 H   0  0  0  0  0  0  0  0  0  0  0  0
    1.9836    1.1562    1.8957 H   0  0  0  0  0  0  0  0  0  0  0  0
   -1.6906   -3.0066   -3.2551 H   0  0  0  0  0  0  0  0  0  0  0  0
   -1.8898   -1.4464   -4.0885 H   0  0  0  0  0  0  0  0  0  0  0  0
   -3.3154   -2.4196   -3.6634 H   0  0  0  0  0  0  0  0  0  0  0  0
  1  6  1  0  0  0  0
  2  1  2  0  0  0  0
  2  3  1  0  0  0  0
  3  4  2  0  0  0  0
  4  5  1  0  0  0  0
  4 11  1  0  0  0  0
  5  9  1  0  0  0  0
  6  5  2  0  0  0  0
  6  7  1  0  0  0  0
  7  8  1  0  0  0  0
  8  9  2  0  0  0  0
  8 10  1  0  0  0  0
 10 25  1  0  0  0  0
 10 26  1  0  0  0  0
 11 27  1  0  0  0  0
 12 28  1  6  0  0  0
 12 11  1  0  0  0  0
 12 17  1  0  0  0  0
 13 14  1  0  0  0  0
 13 12  1  0  0  0  0
 14 15  2  0  0  0  0
 16 31  1  0  0  0  0
 16 14  1  0  0  0  0
 17 22  1  0  0  0  0
 18 17  2  0  0  0  0
 18 19  1  0  0  0  0
 19 20  2  0  0  0  0
 20 21  1  0  0  0  0
 20 34  1  0  0  0  0
 21 35  1  0  0  0  0
 22 36  1  0  0  0  0
 22 21  2  0  0  0  0
 23 37  1  0  0  0  0
 23  2  1  0  0  0  0
 24 10  1  0  0  0  0
 29 13  1  0  0  0  0
 30 13  1  0  0  0  0
 32 18  1  0  0  0  0
 33 19  1  0  0  0  0
 38 23  1  0  0  0  0
 39 23  1  0  0  0  0
M  END
