7.69089
 OpenBabel10231816213D

 45 47  0  0  0  0  0  0  0  0999 V2000
   -4.8746   -1.3192    1.1385 O   0  0  0  0  0  0  0  0  0  0  0  0
   -5.2249   -0.6753   -0.0102 N   0  0  0  0  0  0  0  0  0  0  0  0
   -4.0882   -0.3380   -0.6542 C   0  0  0  0  0  0  0  0  0  0  0  0
   -2.9499   -0.7095    0.1666 C   0  0  0  0  0  0  0  0  0  0  0  0
   -1.5096   -0.4955    0.0061 C   0  0  0  0  0  0  0  0  0  0  0  0
   -0.9615   -0.4889   -1.0873 O   0  0  0  0  0  0  0  0  0  0  0  0
   -0.8245   -0.2845    1.1972 N   0  0  0  0  0  0  0  0  0  0  0  0
    0.5391   -0.0666    1.2899 C   0  0  0  0  0  0  0  0  0  0  0  0
    1.2004    0.2003    2.4670 C   0  0  0  0  0  0  0  0  0  0  0  0
    2.5507    0.3614    2.2034 N   0  0  0  0  0  0  0  0  0  0  0  0
    3.5230    0.6613    3.2316 C   0  0  0  0  0  0  0  0  0  0  0  0
    2.7639    0.2062    0.8478 C   0  0  0  0  0  0  0  0  0  0  0  0
    1.5222   -0.0594    0.2801 C   0  0  0  0  0  0  0  0  0  0  0  0
    3.9926    0.2764    0.0793 C   0  0  0  0  0  0  0  0  0  0  0  0
    4.0333    0.1284   -1.1275 O   0  0  0  0  0  0  0  0  0  0  0  0
    5.0843    0.4938    0.8578 O   0  0  0  0  0  0  0  0  0  0  0  0
    6.3233    0.5149    0.1234 C   0  0  0  0  0  0  0  0  0  0  0  0
    6.8401   -0.8941   -0.1356 C   0  0  0  0  0  0  0  0  0  0  0  0
   -3.5292   -1.3657    1.2445 C   0  0  0  0  0  0  0  0  0  0  0  0
   -3.0221   -2.0747    2.4442 C   0  0  0  0  0  0  0  0  0  0  0  0
   -4.2277    0.3525   -1.9537 C   0  0  0  0  0  0  0  0  0  0  0  0
   -5.4929    0.8390   -2.3409 C   0  0  0  0  0  0  0  0  0  0  0  0
   -5.6856    1.5013   -3.5560 C   0  0  0  0  0  0  0  0  0  0  0  0
   -4.6121    1.6783   -4.4206 C   0  0  0  0  0  0  0  0  0  0  0  0
   -3.3574    1.1870   -4.0727 C   0  0  0  0  0  0  0  0  0  0  0  0
   -3.1740    0.5297   -2.8506 C   0  0  0  0  0  0  0  0  0  0  0  0
   -1.3478   -0.2192    2.0549 H   0  0  0  0  0  0  0  0  0  0  0  0
    0.8395    0.2946    3.4823 H   0  0  0  0  0  0  0  0  0  0  0  0
    3.0090    0.7625    4.1982 H   0  0  0  0  0  0  0  0  0  0  0  0
    4.2515   -0.1527    3.3098 H   0  0  0  0  0  0  0  0  0  0  0  0
    4.0361    1.6035    3.0122 H   0  0  0  0  0  0  0  0  0  0  0  0
    1.3688   -0.2336   -0.7829 H   0  0  0  0  0  0  0  0  0  0  0  0
    6.2192    1.0678   -0.8199 H   0  0  0  0  0  0  0  0  0  0  0  0
    7.0328    1.0618    0.7512 H   0  0  0  0  0  0  0  0  0  0  0  0
    6.9417   -1.4498    0.8023 H   0  0  0  0  0  0  0  0  0  0  0  0
    7.8147   -0.8694   -0.6345 H   0  0  0  0  0  0  0  0  0  0  0  0
    6.1475   -1.4551   -0.7728 H   0  0  0  0  0  0  0  0  0  0  0  0
   -2.0250   -2.4919    2.2715 H   0  0  0  0  0  0  0  0  0  0  0  0
   -3.6853   -2.9019    2.7141 H   0  0  0  0  0  0  0  0  0  0  0  0
   -2.9595   -1.4004    3.3057 H   0  0  0  0  0  0  0  0  0  0  0  0
   -6.3534    0.6988   -1.6887 H   0  0  0  0  0  0  0  0  0  0  0  0
   -6.6729    1.8719   -3.8169 H   0  0  0  0  0  0  0  0  0  0  0  0
   -4.7540    2.1924   -5.3662 H   0  0  0  0  0  0  0  0  0  0  0  0
   -2.5143    1.3110   -4.7488 H   0  0  0  0  0  0  0  0  0  0  0  0
   -2.1871    0.1507   -2.6396 H   0  0  0  0  0  0  0  0  0  0  0  0
  1 19  1  0  0  0  0
  2  1  1  0  0  0  0
  3  2  2  0  0  0  0
  3  4  1  0  0  0  0
  4 19  2  0  0  0  0
  5  4  1  0  0  0  0
  5  7  1  0  0  0  0
  6  5  2  0  0  0  0
  7  8  1  0  0  0  0
  7 27  1  0  0  0  0
  8  9  2  0  0  0  0
  9 28  1  0  0  0  0
 10  9  1  0  0  0  0
 10 11  1  0  0  0  0
 11 30  1  0  0  0  0
 11 29  1  0  0  0  0
 12 10  1  0  0  0  0
 13 12  2  0  0  0  0
 13  8  1  0  0  0  0
 14 12  1  0  0  0  0
 14 16  1  0  0  0  0
 15 14  2  0  0  0  0
 17 34  1  0  0  0  0
 17 16  1  0  0  0  0
 18 17  1  0  0  0  0
 18 35  1  0  0  0  0
 19 20  1  0  0  0  0
 20 39  1  0  0  0  0
 20 40  1  0  0  0  0
 21  3  1  0  0  0  0
 22 21  1  0  0  0  0
 22 41  1  0  0  0  0
 23 22  2  0  0  0  0
 24 25  2  0  0  0  0
 24 23  1  0  0  0  0
 25 26  1  0  0  0  0
 26 45  1  0  0  0  0
 26 21  2  0  0  0  0
 31 11  1  0  0  0  0
 32 13  1  0  0  0  0
 33 17  1  0  0  0  0
 36 18  1  0  0  0  0
 37 18  1  0  0  0  0
 38 20  1  0  0  0  0
 42 23  1  0  0  0  0
 43 24  1  0  0  0  0
 44 25  1  0  0  0  0
M  END
