-35.1117
 OpenBabel10231816213D

 41 42  0  0  0  0  0  0  0  0999 V2000
   -6.4623   -0.5623   -0.5042 C   0  0  0  0  0  0  0  0  0  0  0  0
   -5.6272   -0.0859    0.5939 N   0  0  0  0  0  0  0  0  0  0  0  0
   -6.3077    0.5405    1.7204 C   0  0  0  0  0  0  0  0  0  0  0  0
   -4.2657    0.1308    0.3885 C   0  0  0  0  0  0  0  0  0  0  0  0
   -3.6146   -0.2984   -0.7781 C   0  0  0  0  0  0  0  0  0  0  0  0
   -2.2398   -0.1158   -0.9853 C   0  0  0  0  0  0  0  0  0  0  0  0
   -1.4546    0.5053   -0.0228 C   0  0  0  0  0  0  0  0  0  0  0  0
   -2.0706    0.9440    1.1478 C   0  0  0  0  0  0  0  0  0  0  0  0
   -3.4491    0.7571    1.3449 C   0  0  0  0  0  0  0  0  0  0  0  0
   -0.0714    0.7192   -0.1609 N   0  0  0  0  0  0  0  0  0  0  0  0
    0.7292    0.3619   -1.2127 C   0  0  0  0  0  0  0  0  0  0  0  0
    0.3935   -0.2320   -2.2350 O   0  0  0  0  0  0  0  0  0  0  0  0
    2.0548    0.7110   -1.0965 N   0  0  0  0  0  0  0  0  0  0  0  0
    2.7096    1.3173   -0.0404 C   0  0  0  0  0  0  0  0  0  0  0  0
    2.1462    1.7252    0.9736 O   0  0  0  0  0  0  0  0  0  0  0  0
    4.2071    1.4468   -0.2558 C   0  0  0  0  0  0  0  0  0  0  0  0
    4.9104    0.1135   -0.1947 C   0  0  0  0  0  0  0  0  0  0  0  0
    5.7187   -0.3229   -1.2538 C   0  0  0  0  0  0  0  0  0  0  0  0
    6.3496   -1.5681   -1.1900 C   0  0  0  0  0  0  0  0  0  0  0  0
    6.1838   -2.3812   -0.0703 C   0  0  0  0  0  0  0  0  0  0  0  0
    5.3936   -1.9508    0.9920 C   0  0  0  0  0  0  0  0  0  0  0  0
    4.7654   -0.7073    0.9342 C   0  0  0  0  0  0  0  0  0  0  0  0
   -7.5078   -0.6762   -0.1986 H   0  0  0  0  0  0  0  0  0  0  0  0
   -6.4418    0.1368   -1.3478 H   0  0  0  0  0  0  0  0  0  0  0  0
   -6.1346   -1.5518   -0.8426 H   0  0  0  0  0  0  0  0  0  0  0  0
   -5.8884    0.1926    2.6708 H   0  0  0  0  0  0  0  0  0  0  0  0
   -6.2362    1.6322    1.6666 H   0  0  0  0  0  0  0  0  0  0  0  0
   -7.3720    0.2820    1.7433 H   0  0  0  0  0  0  0  0  0  0  0  0
   -4.1591   -0.7981   -1.5734 H   0  0  0  0  0  0  0  0  0  0  0  0
   -1.8235   -0.4816   -1.9176 H   0  0  0  0  0  0  0  0  0  0  0  0
   -1.4957    1.4341    1.9295 H   0  0  0  0  0  0  0  0  0  0  0  0
   -3.8642    1.1168    2.2815 H   0  0  0  0  0  0  0  0  0  0  0  0
    0.4039    1.1805    0.6128 H   0  0  0  0  0  0  0  0  0  0  0  0
    2.6024    0.3667   -1.8726 H   0  0  0  0  0  0  0  0  0  0  0  0
    4.6210    2.1134    0.5094 H   0  0  0  0  0  0  0  0  0  0  0  0
    4.3706    1.9361   -1.2243 H   0  0  0  0  0  0  0  0  0  0  0  0
    5.8654    0.2946   -2.1364 H   0  0  0  0  0  0  0  0  0  0  0  0
    6.9726   -1.9053   -2.0148 H   0  0  0  0  0  0  0  0  0  0  0  0
    6.6729   -3.3509   -0.0235 H   0  0  0  0  0  0  0  0  0  0  0  0
    5.2632   -2.5826    1.8669 H   0  0  0  0  0  0  0  0  0  0  0  0
    4.1528   -0.3870    1.7760 H   0  0  0  0  0  0  0  0  0  0  0  0
  1 23  1  0  0  0  0
  1  2  1  0  0  0  0
  2  3  1  0  0  0  0
  3 28  1  0  0  0  0
  3 26  1  0  0  0  0
  4  2  1  0  0  0  0
  4  9  2  0  0  0  0
  5  4  1  0  0  0  0
  6  5  2  0  0  0  0
  6  7  1  0  0  0  0
  7  8  2  0  0  0  0
  8  9  1  0  0  0  0
  8 31  1  0  0  0  0
  9 32  1  0  0  0  0
 10  7  1  0  0  0  0
 10 33  1  0  0  0  0
 11 13  1  0  0  0  0
 11 10  1  0  0  0  0
 12 11  2  0  0  0  0
 13 14  1  0  0  0  0
 14 15  2  0  0  0  0
 16 17  1  0  0  0  0
 16 14  1  0  0  0  0
 16 35  1  0  0  0  0
 17 22  2  0  0  0  0
 18 19  2  0  0  0  0
 18 17  1  0  0  0  0
 19 20  1  0  0  0  0
 20 39  1  0  0  0  0
 20 21  2  0  0  0  0
 21 40  1  0  0  0  0
 22 21  1  0  0  0  0
 22 41  1  0  0  0  0
 24  1  1  0  0  0  0
 25  1  1  0  0  0  0
 27  3  1  0  0  0  0
 29  5  1  0  0  0  0
 30  6  1  0  0  0  0
 34 13  1  0  0  0  0
 36 16  1  0  0  0  0
 37 18  1  0  0  0  0
 38 19  1  0  0  0  0
M  END
