64.4284
 OpenBabel10231816213D

 50 52  0  0  1  0  0  0  0  0999 V2000
    6.0701    2.7990   -0.3085 O   0  0  0  0  0  0  0  0  0  0  0  0
    5.9502    1.4601   -0.1970 C   0  0  0  0  0  0  0  0  0  0  0  0
    6.9051    0.7233   -0.3731 O   0  0  0  0  0  0  0  0  0  0  0  0
    4.5353    1.0540    0.1393 C   0  0  1  0  0  0  0  0  0  0  0  0
    3.6448    1.1962   -1.0937 C   0  0  0  0  0  0  0  0  0  0  0  0
    2.2067    0.7914   -0.7744 C   0  0  0  0  0  0  0  0  0  0  0  0
    2.1026   -0.6656   -0.2713 C   0  0  2  0  0  0  0  0  0  0  0  0
    3.0293   -0.8020    0.9700 C   0  0  0  0  0  0  0  0  0  0  0  0
    4.4784   -0.3792    0.6790 C   0  0  0  0  0  0  0  0  0  0  0  0
    2.5783   -1.5669   -1.3413 C   0  0  0  0  0  0  0  0  0  0  0  0
    3.0008   -2.2872   -2.1636 N   0  0  0  0  0  0  0  0  0  0  0  0
    0.6705   -1.0598    0.1019 C   0  0  0  0  0  0  0  0  0  0  0  0
    0.3954   -2.4015    0.4288 C   0  0  0  0  0  0  0  0  0  0  0  0
   -0.8895   -2.8137    0.7865 C   0  0  0  0  0  0  0  0  0  0  0  0
   -1.9327   -1.8912    0.8158 C   0  0  0  0  0  0  0  0  0  0  0  0
   -3.2229   -2.1640    1.1622 O   0  0  0  0  0  0  0  0  0  0  0  0
   -3.5340   -3.4989    1.5057 C   0  0  0  0  0  0  0  0  0  0  0  0
   -1.6802   -0.5645    0.4636 C   0  0  0  0  0  0  0  0  0  0  0  0
   -0.3953   -0.1474    0.1214 C   0  0  0  0  0  0  0  0  0  0  0  0
   -2.6455    0.4011    0.5712 O   0  0  0  0  0  0  0  0  0  0  0  0
   -3.6310    0.3544   -0.4755 C   0  0  0  0  0  0  0  0  0  0  0  0
   -4.9501    0.8449    0.1208 C   0  0  0  0  0  0  0  0  0  0  0  0
   -4.7277    2.3533    0.2941 C   0  0  0  0  0  0  0  0  0  0  0  0
   -3.7143    2.7510   -0.7937 C   0  0  0  0  0  0  0  0  0  0  0  0
   -3.3223    1.4454   -1.5001 C   0  0  0  0  0  0  0  0  0  0  0  0
    7.0049    2.9576   -0.5578 H   0  0  0  0  0  0  0  0  0  0  0  0
    4.1788    1.7345    0.9232 H   0  0  0  0  0  0  0  0  0  0  0  0
    3.6640    2.2283   -1.4582 H   0  0  0  0  0  0  0  0  0  0  0  0
    4.0304    0.5732   -1.9102 H   0  0  0  0  0  0  0  0  0  0  0  0
    1.8240    1.4711    0.0014 H   0  0  0  0  0  0  0  0  0  0  0  0
    1.5821    0.9320   -1.6662 H   0  0  0  0  0  0  0  0  0  0  0  0
    3.0269   -1.8284    1.3599 H   0  0  0  0  0  0  0  0  0  0  0  0
    2.6400   -0.1622    1.7778 H   0  0  0  0  0  0  0  0  0  0  0  0
    4.9294   -1.0662   -0.0504 H   0  0  0  0  0  0  0  0  0  0  0  0
    5.0835   -0.4693    1.5906 H   0  0  0  0  0  0  0  0  0  0  0  0
    1.1922   -3.1444    0.3986 H   0  0  0  0  0  0  0  0  0  0  0  0
   -1.0410   -3.8583    1.0388 H   0  0  0  0  0  0  0  0  0  0  0  0
   -4.6017   -3.5140    1.7352 H   0  0  0  0  0  0  0  0  0  0  0  0
   -2.9798   -3.8173    2.3932 H   0  0  0  0  0  0  0  0  0  0  0  0
   -3.3472   -4.1796    0.6693 H   0  0  0  0  0  0  0  0  0  0  0  0
   -0.2600    0.8991   -0.1348 H   0  0  0  0  0  0  0  0  0  0  0  0
   -3.7345   -0.6341   -0.9399 H   0  0  0  0  0  0  0  0  0  0  0  0
   -5.7832    0.6655   -0.5709 H   0  0  0  0  0  0  0  0  0  0  0  0
   -5.1830    0.3471    1.0689 H   0  0  0  0  0  0  0  0  0  0  0  0
   -5.6644    2.9173    0.2207 H   0  0  0  0  0  0  0  0  0  0  0  0
   -4.3113    2.5643    1.2887 H   0  0  0  0  0  0  0  0  0  0  0  0
   -4.1291    3.4804   -1.4995 H   0  0  0  0  0  0  0  0  0  0  0  0
   -2.8335    3.2230   -0.3384 H   0  0  0  0  0  0  0  0  0  0  0  0
   -3.9374    1.3072   -2.3986 H   0  0  0  0  0  0  0  0  0  0  0  0
   -2.2720    1.4417   -1.8095 H   0  0  0  0  0  0  0  0  0  0  0  0
  1  2  1  0  0  0  0
  2  4  1  0  0  0  0
  3  2  2  0  0  0  0
  4  9  1  0  0  0  0
  4 27  1  1  0  0  0
  5  6  1  0  0  0  0
  5  4  1  0  0  0  0
  6  7  1  0  0  0  0
  6 30  1  0  0  0  0
  7 10  1  6  0  0  0
  7 12  1  0  0  0  0
  7  8  1  0  0  0  0
  8 32  1  0  0  0  0
  8 33  1  0  0  0  0
  9  8  1  0  0  0  0
  9 35  1  0  0  0  0
 11 10  3  0  0  0  0
 12 19  2  0  0  0  0
 12 13  1  0  0  0  0
 13 14  2  0  0  0  0
 14 15  1  0  0  0  0
 14 37  1  0  0  0  0
 15 16  1  0  0  0  0
 16 17  1  0  0  0  0
 17 38  1  0  0  0  0
 17 39  1  0  0  0  0
 18 20  1  0  0  0  0
 18 15  2  0  0  0  0
 19 18  1  0  0  0  0
 21 22  1  0  0  0  0
 21 20  1  0  0  0  0
 22 23  1  0  0  0  0
 22 44  1  0  0  0  0
 23 46  1  0  0  0  0
 24 48  1  0  0  0  0
 24 23  1  0  0  0  0
 25 24  1  0  0  0  0
 25 21  1  0  0  0  0
 26  1  1  0  0  0  0
 28  5  1  0  0  0  0
 29  5  1  0  0  0  0
 31  6  1  0  0  0  0
 34  9  1  0  0  0  0
 36 13  1  0  0  0  0
 40 17  1  0  0  0  0
 41 19  1  0  0  0  0
 42 21  1  0  0  0  0
 43 22  1  0  0  0  0
 45 23  1  0  0  0  0
 47 24  1  0  0  0  0
 49 25  1  0  0  0  0
 50 25  1  0  0  0  0
M  END
