89.4369
 OpenBabel10231816213D

 44 47  0  0  1  0  0  0  0  0999 V2000
   -0.1824   -5.1047   -1.4512 Cl  0  0  0  0  0  0  0  0  0  0  0  0
   -0.8552   -3.5695   -1.0980 C   0  0  0  0  0  0  0  0  0  0  0  0
   -1.4165   -2.7940   -2.0949 C   0  0  0  0  0  0  0  0  0  0  0  0
   -1.9458   -1.5663   -1.8800 N   0  0  0  0  0  0  0  0  0  0  0  0
   -1.9196   -1.0715   -0.6284 C   0  0  0  0  0  0  0  0  0  0  0  0
   -2.3929    0.2264   -0.4193 N   0  0  0  0  0  0  0  0  0  0  0  0
   -3.3306    0.8630   -1.2426 C   0  0  0  0  0  0  0  0  0  0  0  0
   -4.0257    0.4177   -2.1349 O   0  0  0  0  0  0  0  0  0  0  0  0
   -3.4035    2.2553   -0.7632 C   0  0  0  0  0  0  0  0  0  0  0  0
   -4.2021    3.2375   -1.2327 N   0  0  0  0  0  0  0  0  0  0  0  0
   -4.0573    4.4058   -0.5643 C   0  0  0  0  0  0  0  0  0  0  0  0
   -3.1817    4.5684    0.5099 C   0  0  0  0  0  0  0  0  0  0  0  0
   -2.3920    3.5681    0.9779 N   0  0  0  0  0  0  0  0  0  0  0  0
   -2.5378    2.4102    0.2999 C   0  0  0  0  0  0  0  0  0  0  0  0
   -1.8283    1.1114    0.5786 C   0  0  2  0  0  0  0  0  0  0  0  0
   -0.4328    1.2726    0.3228 O   0  0  0  0  0  0  0  0  0  0  0  0
    0.4014    0.8664    1.3093 C   0  0  0  0  0  0  0  0  0  0  0  0
    0.0245    0.5059    2.4188 O   0  0  0  0  0  0  0  0  0  0  0  0
    1.7239    0.8338    0.8939 N   0  0  0  0  0  0  0  0  0  0  0  0
    2.0371    0.6186   -0.5221 C   0  0  0  0  0  0  0  0  0  0  0  0
    2.1524   -0.8963   -0.8031 C   0  0  0  0  0  0  0  0  0  0  0  0
    3.0954   -1.6134    0.0811 N   0  0  0  0  0  0  0  0  0  0  0  0
    2.8233   -1.2843    1.4984 C   0  0  0  0  0  0  0  0  0  0  0  0
    2.7016    0.2268    1.7935 C   0  0  0  0  0  0  0  0  0  0  0  0
    4.4852   -1.3610   -0.2894 C   0  0  0  0  0  0  0  0  0  0  0  0
   -1.3725   -1.7975    0.4326 C   0  0  0  0  0  0  0  0  0  0  0  0
   -0.8402   -3.0680    0.1934 C   0  0  0  0  0  0  0  0  0  0  0  0
   -1.4565   -3.1315   -3.1246 H   0  0  0  0  0  0  0  0  0  0  0  0
   -4.6713    5.2327   -0.9133 H   0  0  0  0  0  0  0  0  0  0  0  0
   -3.0922    5.5187    1.0293 H   0  0  0  0  0  0  0  0  0  0  0  0
   -2.0852    0.7625    1.5841 H   0  0  0  0  0  0  0  0  0  0  0  0
    1.2713    1.0555   -1.1689 H   0  0  0  0  0  0  0  0  0  0  0  0
    2.9839    1.1217   -0.7416 H   0  0  0  0  0  0  0  0  0  0  0  0
    1.1720   -1.3491   -0.6429 H   0  0  0  0  0  0  0  0  0  0  0  0
    2.3928   -1.0802   -1.8557 H   0  0  0  0  0  0  0  0  0  0  0  0
    3.5798   -1.7391    2.1473 H   0  0  0  0  0  0  0  0  0  0  0  0
    1.8707   -1.7634    1.7600 H   0  0  0  0  0  0  0  0  0  0  0  0
    2.4071    0.3822    2.8363 H   0  0  0  0  0  0  0  0  0  0  0  0
    3.6622    0.7314    1.6387 H   0  0  0  0  0  0  0  0  0  0  0  0
    5.1509   -1.9687    0.3321 H   0  0  0  0  0  0  0  0  0  0  0  0
    4.7936   -0.3140   -0.1954 H   0  0  0  0  0  0  0  0  0  0  0  0
    4.6547   -1.6721   -1.3260 H   0  0  0  0  0  0  0  0  0  0  0  0
   -1.3566   -1.4131    1.4449 H   0  0  0  0  0  0  0  0  0  0  0  0
   -0.4050   -3.6346    1.0099 H   0  0  0  0  0  0  0  0  0  0  0  0
  1  2  1  0  0  0  0
  2 27  2  0  0  0  0
  3  4  2  0  0  0  0
  3  2  1  0  0  0  0
  4  5  1  0  0  0  0
  5  6  1  0  0  0  0
  5 26  2  0  0  0  0
  6 15  1  0  0  0  0
  7  9  1  0  0  0  0
  7  6  1  0  0  0  0
  8  7  2  0  0  0  0
  9 14  1  0  0  0  0
 10  9  2  0  0  0  0
 10 11  1  0  0  0  0
 11 12  2  0  0  0  0
 12 13  1  0  0  0  0
 12 30  1  0  0  0  0
 14 15  1  0  0  0  0
 14 13  2  0  0  0  0
 15 31  1  1  0  0  0
 16 15  1  0  0  0  0
 16 17  1  0  0  0  0
 17 18  2  0  0  0  0
 19 17  1  0  0  0  0
 19 24  1  0  0  0  0
 20 19  1  0  0  0  0
 21 34  1  0  0  0  0
 21 20  1  0  0  0  0
 21 22  1  0  0  0  0
 22 23  1  0  0  0  0
 23 37  1  0  0  0  0
 23 24  1  0  0  0  0
 23 36  1  0  0  0  0
 24 38  1  0  0  0  0
 25 41  1  0  0  0  0
 25 22  1  0  0  0  0
 25 40  1  0  0  0  0
 26 43  1  0  0  0  0
 27 26  1  0  0  0  0
 27 44  1  0  0  0  0
 28  3  1  0  0  0  0
 29 11  1  0  0  0  0
 32 20  1  0  0  0  0
 33 20  1  0  0  0  0
 35 21  1  0  0  0  0
 39 24  1  0  0  0  0
 42 25  1  0  0  0  0
M  END
