65.6955
 OpenBabel10231816213D

 50 52  0  0  1  0  0  0  0  0999 V2000
    6.0015    2.7203    0.0126 O   0  0  0  0  0  0  0  0  0  0  0  0
    5.8541    1.3820   -0.0692 C   0  0  0  0  0  0  0  0  0  0  0  0
    6.8023    0.6697   -0.3634 O   0  0  0  0  0  0  0  0  0  0  0  0
    4.4408    0.9499    0.2341 C   0  0  1  0  0  0  0  0  0  0  0  0
    3.5317    1.2990   -0.9458 C   0  0  0  0  0  0  0  0  0  0  0  0
    2.0929    0.8629   -0.6694 C   0  0  0  0  0  0  0  0  0  0  0  0
    1.9771   -0.6613   -0.4026 C   0  0  2  0  0  0  0  0  0  0  0  0
    2.9211   -0.9989    0.7892 C   0  0  0  0  0  0  0  0  0  0  0  0
    4.3668   -0.5509    0.5473 C   0  0  0  0  0  0  0  0  0  0  0  0
    2.4217   -1.3807   -1.6269 C   0  0  0  0  0  0  0  0  0  0  0  0
    2.7907   -1.9484   -2.5690 N   0  0  0  0  0  0  0  0  0  0  0  0
    0.5554   -1.1236   -0.0529 C   0  0  0  0  0  0  0  0  0  0  0  0
    0.2922   -2.5025    0.0510 C   0  0  0  0  0  0  0  0  0  0  0  0
   -0.9767   -2.9800    0.3724 C   0  0  0  0  0  0  0  0  0  0  0  0
   -2.0207   -2.0863    0.5937 C   0  0  0  0  0  0  0  0  0  0  0  0
   -3.3006   -2.4448    0.9256 O   0  0  0  0  0  0  0  0  0  0  0  0
   -3.5776   -3.8271    1.0617 C   0  0  0  0  0  0  0  0  0  0  0  0
   -1.7890   -0.7067    0.4744 C   0  0  0  0  0  0  0  0  0  0  0  0
   -0.5108   -0.2356    0.1587 C   0  0  0  0  0  0  0  0  0  0  0  0
   -2.8852    0.0848    0.6800 O   0  0  0  0  0  0  0  0  0  0  0  0
   -2.7867    1.4946    0.5141 C   0  0  0  0  0  0  0  0  0  0  0  0
   -2.8094    1.8968   -0.9578 C   0  0  0  0  0  0  0  0  0  0  0  0
   -4.2619    1.7008   -1.3792 C   0  0  0  0  0  0  0  0  0  0  0  0
   -5.0935    1.8924   -0.1106 C   0  0  0  0  0  0  0  0  0  0  0  0
   -4.0959    2.0825    1.0338 C   0  0  0  0  0  0  0  0  0  0  0  0
    6.9377    2.8770   -0.2150 H   0  0  0  0  0  0  0  0  0  0  0  0
    4.1161    1.4949    1.1275 H   0  0  0  0  0  0  0  0  0  0  0  0
    3.9020    0.8214   -1.8606 H   0  0  0  0  0  0  0  0  0  0  0  0
    3.5546    2.3775   -1.1389 H   0  0  0  0  0  0  0  0  0  0  0  0
    1.7395    1.4260    0.2070 H   0  0  0  0  0  0  0  0  0  0  0  0
    1.4580    1.1589   -1.5151 H   0  0  0  0  0  0  0  0  0  0  0  0
    2.5490   -0.5014    1.6970 H   0  0  0  0  0  0  0  0  0  0  0  0
    2.9178   -2.0735    1.0091 H   0  0  0  0  0  0  0  0  0  0  0  0
    4.7998   -1.1323   -0.2768 H   0  0  0  0  0  0  0  0  0  0  0  0
    4.9754   -0.7834    1.4302 H   0  0  0  0  0  0  0  0  0  0  0  0
    1.0800   -3.2335   -0.1318 H   0  0  0  0  0  0  0  0  0  0  0  0
   -1.1136   -4.0539    0.4388 H   0  0  0  0  0  0  0  0  0  0  0  0
   -2.9815   -4.2724    1.8649 H   0  0  0  0  0  0  0  0  0  0  0  0
   -4.6320   -3.9211    1.3332 H   0  0  0  0  0  0  0  0  0  0  0  0
   -3.4244   -4.3534    0.1143 H   0  0  0  0  0  0  0  0  0  0  0  0
   -0.3512    0.8312    0.0673 H   0  0  0  0  0  0  0  0  0  0  0  0
   -1.9395    1.9039    1.0743 H   0  0  0  0  0  0  0  0  0  0  0  0
   -2.5305    2.9518   -1.0590 H   0  0  0  0  0  0  0  0  0  0  0  0
   -2.1392    1.3046   -1.5877 H   0  0  0  0  0  0  0  0  0  0  0  0
   -4.4104    0.6877   -1.7727 H   0  0  0  0  0  0  0  0  0  0  0  0
   -4.5473    2.4007   -2.1707 H   0  0  0  0  0  0  0  0  0  0  0  0
   -5.7634    2.7544   -0.1914 H   0  0  0  0  0  0  0  0  0  0  0  0
   -5.7213    1.0104    0.0623 H   0  0  0  0  0  0  0  0  0  0  0  0
   -3.9747    3.1505    1.2452 H   0  0  0  0  0  0  0  0  0  0  0  0
   -4.4413    1.5851    1.9468 H   0  0  0  0  0  0  0  0  0  0  0  0
  2  1  1  0  0  0  0
  2  4  1  0  0  0  0
  3  2  2  0  0  0  0
  4  9  1  0  0  0  0
  4 27  1  1  0  0  0
  5  6  1  0  0  0  0
  5  4  1  0  0  0  0
  6  7  1  0  0  0  0
  6 30  1  0  0  0  0
  7 10  1  6  0  0  0
  7 12  1  0  0  0  0
  7  8  1  0  0  0  0
  8 33  1  0  0  0  0
  8 32  1  0  0  0  0
  9  8  1  0  0  0  0
  9 35  1  0  0  0  0
 11 10  3  0  0  0  0
 12 13  2  0  0  0  0
 12 19  1  0  0  0  0
 13 14  1  0  0  0  0
 14 37  1  0  0  0  0
 14 15  2  0  0  0  0
 15 16  1  0  0  0  0
 16 17  1  0  0  0  0
 17 39  1  0  0  0  0
 17 38  1  0  0  0  0
 18 15  1  0  0  0  0
 18 20  1  0  0  0  0
 19 18  2  0  0  0  0
 21 20  1  0  0  0  0
 21 25  1  0  0  0  0
 21 42  1  0  0  0  0
 22 21  1  0  0  0  0
 23 22  1  0  0  0  0
 23 24  1  0  0  0  0
 24 48  1  0  0  0  0
 24 25  1  0  0  0  0
 25 49  1  0  0  0  0
 25 50  1  0  0  0  0
 26  1  1  0  0  0  0
 28  5  1  0  0  0  0
 29  5  1  0  0  0  0
 31  6  1  0  0  0  0
 34  9  1  0  0  0  0
 36 13  1  0  0  0  0
 40 17  1  0  0  0  0
 41 19  1  0  0  0  0
 43 22  1  0  0  0  0
 44 22  1  0  0  0  0
 45 23  1  0  0  0  0
 46 23  1  0  0  0  0
 47 24  1  0  0  0  0
M  END
