75.2952
 OpenBabel10231816213D

 45 47  0  0  1  0  0  0  0  0999 V2000
   -0.3314    0.3655    0.5504 S   0  0  0  0  0  0  0  0  0  0  0  0
   -0.9170    0.6605   -1.0364 C   0  0  0  0  0  0  0  0  0  0  0  0
   -0.2437   -0.1147   -1.9631 C   0  0  0  0  0  0  0  0  0  0  0  0
    0.7479   -0.9438   -1.3675 C   0  0  0  0  0  0  0  0  0  0  0  0
    0.8125   -0.7884    0.0026 C   0  0  0  0  0  0  0  0  0  0  0  0
    1.7389   -1.4657    0.9810 C   0  0  1  0  0  0  0  0  0  0  0  0
    1.4649   -2.8647    0.9272 O   0  0  0  0  0  0  0  0  0  0  0  0
    3.1975   -1.2150    0.6605 C   0  0  0  0  0  0  0  0  0  0  0  0
    3.7458    0.0582    0.8813 C   0  0  0  0  0  0  0  0  0  0  0  0
    5.0778    0.3276    0.5618 C   0  0  0  0  0  0  0  0  0  0  0  0
    5.8855   -0.6706    0.0169 C   0  0  0  0  0  0  0  0  0  0  0  0
    7.1974   -0.5303   -0.3400 O   0  0  0  0  0  0  0  0  0  0  0  0
    7.7748    0.7512   -0.1316 C   0  0  0  0  0  0  0  0  0  0  0  0
    5.3533   -1.9412   -0.2007 C   0  0  0  0  0  0  0  0  0  0  0  0
    4.0230   -2.2125    0.1167 C   0  0  0  0  0  0  0  0  0  0  0  0
   -2.0479    1.6224   -1.3037 C   0  0  2  0  0  0  0  0  0  0  0  0
   -1.7149    2.8927   -0.7478 O   0  0  0  0  0  0  0  0  0  0  0  0
   -3.3747    1.1449   -0.7605 C   0  0  0  0  0  0  0  0  0  0  0  0
   -3.9354    1.7080    0.3956 C   0  0  0  0  0  0  0  0  0  0  0  0
   -5.1453    1.2394    0.9038 C   0  0  0  0  0  0  0  0  0  0  0  0
   -5.8139    0.1972    0.2644 C   0  0  0  0  0  0  0  0  0  0  0  0
   -6.9980   -0.3553    0.6681 O   0  0  0  0  0  0  0  0  0  0  0  0
   -7.5835    0.1950    1.8412 C   0  0  0  0  0  0  0  0  0  0  0  0
   -5.2667   -0.3656   -0.8917 C   0  0  0  0  0  0  0  0  0  0  0  0
   -4.0584    0.1043   -1.4045 C   0  0  0  0  0  0  0  0  0  0  0  0
   -0.4592   -0.0988   -3.0249 H   0  0  0  0  0  0  0  0  0  0  0  0
    1.3944   -1.6209   -1.9137 H   0  0  0  0  0  0  0  0  0  0  0  0
    1.5519   -1.1344    2.0106 H   0  0  0  0  0  0  0  0  0  0  0  0
    0.5437   -2.9759    1.2064 H   0  0  0  0  0  0  0  0  0  0  0  0
    3.1302    0.8515    1.3004 H   0  0  0  0  0  0  0  0  0  0  0  0
    5.4508    1.3281    0.7501 H   0  0  0  0  0  0  0  0  0  0  0  0
    7.7727    1.0178    0.9308 H   0  0  0  0  0  0  0  0  0  0  0  0
    8.8152    0.7016   -0.4630 H   0  0  0  0  0  0  0  0  0  0  0  0
    7.2676    1.5159   -0.7300 H   0  0  0  0  0  0  0  0  0  0  0  0
    5.9769   -2.7257   -0.6222 H   0  0  0  0  0  0  0  0  0  0  0  0
    3.6317   -3.2128   -0.0624 H   0  0  0  0  0  0  0  0  0  0  0  0
   -2.1575    1.7736   -2.3857 H   0  0  0  0  0  0  0  0  0  0  0  0
   -0.8283    3.1205   -1.0802 H   0  0  0  0  0  0  0  0  0  0  0  0
   -3.4263    2.5210    0.9111 H   0  0  0  0  0  0  0  0  0  0  0  0
   -5.5311    1.7107    1.8015 H   0  0  0  0  0  0  0  0  0  0  0  0
   -7.8326    1.2525    1.7005 H   0  0  0  0  0  0  0  0  0  0  0  0
   -6.9350    0.0552    2.7133 H   0  0  0  0  0  0  0  0  0  0  0  0
   -8.5152   -0.3455    2.0270 H   0  0  0  0  0  0  0  0  0  0  0  0
   -5.7890   -1.1771   -1.3921 H   0  0  0  0  0  0  0  0  0  0  0  0
   -3.6494   -0.3567   -2.3014 H   0  0  0  0  0  0  0  0  0  0  0  0
  2  1  1  0  0  0  0
  3  4  1  0  0  0  0
  3  2  2  0  0  0  0
  4  5  2  0  0  0  0
  5  1  1  0  0  0  0
  5  6  1  0  0  0  0
  6 28  1  1  0  0  0
  7  6  1  0  0  0  0
  7 29  1  0  0  0  0
  8  9  1  0  0  0  0
  8  6  1  0  0  0  0
  9 30  1  0  0  0  0
 10 31  1  0  0  0  0
 10  9  2  0  0  0  0
 11 10  1  0  0  0  0
 12 13  1  0  0  0  0
 12 11  1  0  0  0  0
 13 32  1  0  0  0  0
 14 11  2  0  0  0  0
 14 15  1  0  0  0  0
 15  8  2  0  0  0  0
 16 37  1  6  0  0  0
 16  2  1  0  0  0  0
 16 18  1  0  0  0  0
 16 17  1  0  0  0  0
 18 19  2  0  0  0  0
 19 20  1  0  0  0  0
 19 39  1  0  0  0  0
 20 40  1  0  0  0  0
 21 22  1  0  0  0  0
 21 20  2  0  0  0  0
 22 23  1  0  0  0  0
 23 43  1  0  0  0  0
 23 42  1  0  0  0  0
 24 21  1  0  0  0  0
 25 24  2  0  0  0  0
 25 18  1  0  0  0  0
 26  3  1  0  0  0  0
 27  4  1  0  0  0  0
 33 13  1  0  0  0  0
 34 13  1  0  0  0  0
 35 14  1  0  0  0  0
 36 15  1  0  0  0  0
 38 17  1  0  0  0  0
 41 23  1  0  0  0  0
 44 24  1  0  0  0  0
 45 25  1  0  0  0  0
M  END
