6.46764
 OpenBabel10231816213D

 66 68  0  0  1  0  0  0  0  0999 V2000
    0.9175   -1.1358    1.9618 C   0  0  2  0  0  0  0  0  0  0  0  0
    0.3360   -2.5712    1.9226 C   0  0  0  0  0  0  0  0  0  0  0  0
   -0.9293   -2.7717    1.1221 C   0  0  0  0  0  0  0  0  0  0  0  0
   -2.1743   -2.8394    1.7568 C   0  0  0  0  0  0  0  0  0  0  0  0
   -3.3483   -2.9341    1.0049 C   0  0  0  0  0  0  0  0  0  0  0  0
   -3.2981   -2.9493   -0.3892 C   0  0  0  0  0  0  0  0  0  0  0  0
   -2.0621   -2.9648   -1.0272 C   0  0  0  0  0  0  0  0  0  0  0  0
   -0.8871   -2.8706   -0.2754 C   0  0  0  0  0  0  0  0  0  0  0  0
   -4.5068   -2.9509   -1.0239 O   0  0  0  0  0  0  0  0  0  0  0  0
   -4.6260   -2.1581   -2.2050 C   0  0  0  0  0  0  0  0  0  0  0  0
   -4.8830   -0.6662   -1.9470 C   0  0  0  0  0  0  0  0  0  0  0  0
   -3.8200    0.0525   -1.1062 C   0  0  0  0  0  0  0  0  0  0  0  0
   -4.1472    0.0595    0.3846 C   0  0  0  0  0  0  0  0  0  0  0  0
   -5.2866   -0.1618    0.8008 O   0  0  0  0  0  0  0  0  0  0  0  0
   -3.1938    0.3937    1.2877 N   0  0  0  0  0  0  0  0  0  0  0  0
   -1.7444    0.5157    1.1479 C   0  0  2  0  0  0  0  0  0  0  0  0
   -1.1465    0.2956    2.5604 C   0  0  0  0  0  0  0  0  0  0  0  0
   -1.7662    0.6413    3.5572 O   0  0  0  0  0  0  0  0  0  0  0  0
    0.1121   -0.1865    2.7406 N   0  0  0  0  0  0  0  0  0  0  0  0
   -1.3466    1.9146    0.7024 C   0  0  0  0  0  0  0  0  0  0  0  0
   -1.2811    2.0067   -0.7984 C   0  0  0  0  0  0  0  0  0  0  0  0
   -0.7996    1.1406   -1.5221 O   0  0  0  0  0  0  0  0  0  0  0  0
   -1.7379    3.1745   -1.3304 N   0  0  0  0  0  0  0  0  0  0  0  0
    1.4057   -0.6196    0.5946 C   0  0  2  0  0  0  0  0  0  0  0  0
    2.1803   -1.6559   -0.0371 O   0  0  0  0  0  0  0  0  0  0  0  0
    2.2845    0.6340    0.7316 C   0  0  0  0  0  0  0  0  0  0  0  0
    3.5793    0.2446    1.2997 N   0  0  0  0  0  0  0  0  0  0  0  0
    4.8128    1.3671    1.4258 S   0  0  0  0  0  0  0  0  0  0  0  0
    4.3097    2.5078    2.1503 O   0  0  0  0  0  0  0  0  0  0  0  0
    5.9738    0.6243    1.8594 O   0  0  0  0  0  0  0  0  0  0  0  0
    5.0793    1.8549   -0.2650 C   0  0  0  0  0  0  0  0  0  0  0  0
    4.4360    2.9931   -0.7566 C   0  0  0  0  0  0  0  0  0  0  0  0
    4.6375    3.3858   -2.0796 C   0  0  0  0  0  0  0  0  0  0  0  0
    5.4925    2.6507   -2.9023 C   0  0  0  0  0  0  0  0  0  0  0  0
    6.1558    1.5287   -2.3996 C   0  0  0  0  0  0  0  0  0  0  0  0
    5.9573    1.1307   -1.0749 C   0  0  0  0  0  0  0  0  0  0  0  0
    1.8300   -1.2505    2.5659 H   0  0  0  0  0  0  0  0  0  0  0  0
    0.1632   -2.9005    2.9558 H   0  0  0  0  0  0  0  0  0  0  0  0
    1.1000   -3.2546    1.5307 H   0  0  0  0  0  0  0  0  0  0  0  0
   -2.2437   -2.7855    2.8404 H   0  0  0  0  0  0  0  0  0  0  0  0
   -4.3176   -2.9321    1.4985 H   0  0  0  0  0  0  0  0  0  0  0  0
   -1.9890   -3.0438   -2.1057 H   0  0  0  0  0  0  0  0  0  0  0  0
    0.0659   -2.8567   -0.7980 H   0  0  0  0  0  0  0  0  0  0  0  0
   -3.7851   -2.2850   -2.8941 H   0  0  0  0  0  0  0  0  0  0  0  0
   -5.4987   -2.5608   -2.7370 H   0  0  0  0  0  0  0  0  0  0  0  0
   -5.8692   -0.5401   -1.4893 H   0  0  0  0  0  0  0  0  0  0  0  0
   -4.9346   -0.1795   -2.9297 H   0  0  0  0  0  0  0  0  0  0  0  0
   -2.8306   -0.3563   -1.3020 H   0  0  0  0  0  0  0  0  0  0  0  0
   -3.8076    1.1046   -1.4047 H   0  0  0  0  0  0  0  0  0  0  0  0
   -3.5423    0.4033    2.2480 H   0  0  0  0  0  0  0  0  0  0  0  0
   -1.4006   -0.2489    0.4604 H   0  0  0  0  0  0  0  0  0  0  0  0
    0.3676   -0.1479    3.7260 H   0  0  0  0  0  0  0  0  0  0  0  0
   -2.0320    2.6650    1.1122 H   0  0  0  0  0  0  0  0  0  0  0  0
   -0.3418    2.1680    1.0559 H   0  0  0  0  0  0  0  0  0  0  0  0
   -1.6390    3.3149   -2.3335 H   0  0  0  0  0  0  0  0  0  0  0  0
   -1.9944    3.9770   -0.7729 H   0  0  0  0  0  0  0  0  0  0  0  0
    0.5647   -0.3895   -0.0571 H   0  0  0  0  0  0  0  0  0  0  0  0
    2.4070   -1.3514   -0.9313 H   0  0  0  0  0  0  0  0  0  0  0  0
    2.4478    1.0370   -0.2709 H   0  0  0  0  0  0  0  0  0  0  0  0
    1.8034    1.3928    1.3530 H   0  0  0  0  0  0  0  0  0  0  0  0
    3.9129   -0.6878    1.0448 H   0  0  0  0  0  0  0  0  0  0  0  0
    3.7754    3.5689   -0.1125 H   0  0  0  0  0  0  0  0  0  0  0  0
    4.1301    4.2661   -2.4674 H   0  0  0  0  0  0  0  0  0  0  0  0
    5.6507    2.9588   -3.9343 H   0  0  0  0  0  0  0  0  0  0  0  0
    6.8315    0.9655   -3.0401 H   0  0  0  0  0  0  0  0  0  0  0  0
    6.4907    0.2685   -0.6822 H   0  0  0  0  0  0  0  0  0  0  0  0
  1 37  1  1  0  0  0
  1 19  1  0  0  0  0
  2  1  1  0  0  0  0
  2 38  1  0  0  0  0
  3  4  1  0  0  0  0
  3  2  1  0  0  0  0
  4 40  1  0  0  0  0
  5 41  1  0  0  0  0
  5  4  2  0  0  0  0
  6  5  1  0  0  0  0
  7  6  2  0  0  0  0
  7  8  1  0  0  0  0
  8  3  2  0  0  0  0
  9  6  1  0  0  0  0
 10 11  1  0  0  0  0
 10  9  1  0  0  0  0
 11 46  1  0  0  0  0
 11 12  1  0  0  0  0
 12 13  1  0  0  0  0
 13 14  2  0  0  0  0
 13 15  1  0  0  0  0
 15 50  1  0  0  0  0
 16 51  1  6  0  0  0
 16 15  1  0  0  0  0
 16 17  1  0  0  0  0
 17 19  1  0  0  0  0
 17 18  2  0  0  0  0
 19 52  1  0  0  0  0
 20 54  1  0  0  0  0
 20 53  1  0  0  0  0
 20 16  1  0  0  0  0
 21 20  1  0  0  0  0
 22 21  2  0  0  0  0
 23 21  1  0  0  0  0
 23 56  1  0  0  0  0
 24 57  1  6  0  0  0
 24 26  1  0  0  0  0
 24  1  1  0  0  0  0
 25 24  1  0  0  0  0
 26 27  1  0  0  0  0
 26 60  1  0  0  0  0
 27 28  1  0  0  0  0
 28 30  2  0  0  0  0
 28 29  2  0  0  0  0
 31 28  1  0  0  0  0
 32 31  1  0  0  0  0
 32 62  1  0  0  0  0
 33 32  2  0  0  0  0
 34 35  2  0  0  0  0
 34 33  1  0  0  0  0
 35 36  1  0  0  0  0
 36 66  1  0  0  0  0
 36 31  2  0  0  0  0
 39  2  1  0  0  0  0
 42  7  1  0  0  0  0
 43  8  1  0  0  0  0
 44 10  1  0  0  0  0
 45 10  1  0  0  0  0
 47 11  1  0  0  0  0
 48 12  1  0  0  0  0
 49 12  1  0  0  0  0
 55 23  1  0  0  0  0
 58 25  1  0  0  0  0
 59 26  1  0  0  0  0
 61 27  1  0  0  0  0
 63 33  1  0  0  0  0
 64 34  1  0  0  0  0
 65 35  1  0  0  0  0
M  END
