-36.8782
 OpenBabel10231816213D

 24 23  0  0  1  0  0  0  0  0999 V2000
   -0.2788   -0.6467   -0.5249 C   0  0  2  0  0  0  0  0  0  0  0  0
   -1.1253   -1.5744    0.3656 C   0  0  0  0  0  0  0  0  0  0  0  0
   -2.2900   -1.8898    0.1602 O   0  0  0  0  0  0  0  0  0  0  0  0
   -0.4614   -2.1259    1.3965 O   0  0  0  0  0  0  0  0  0  0  0  0
    0.9100    0.0401    0.1642 C   0  0  0  0  0  0  0  0  0  0  0  0
    2.1192   -0.8878    0.3285 C   0  0  0  0  0  0  0  0  0  0  0  0
    3.2675   -0.2056    1.0123 C   0  0  0  0  0  0  0  0  0  0  0  0
    3.9002   -0.6367    1.9627 O   0  0  0  0  0  0  0  0  0  0  0  0
    3.6405    0.9442    0.4091 O   0  0  0  0  0  0  0  0  0  0  0  0
   -1.2008    0.3112   -1.1533 N   0  0  0  0  0  0  0  0  0  0  0  0
   -1.9006    1.2181   -0.3858 C   0  0  0  0  0  0  0  0  0  0  0  0
   -1.6686    1.4205    0.8024 O   0  0  0  0  0  0  0  0  0  0  0  0
   -2.9952    1.9483   -1.1155 C   0  0  0  0  0  0  0  0  0  0  0  0
    0.0977   -1.2669   -1.3478 H   0  0  0  0  0  0  0  0  0  0  0  0
   -1.1475   -2.6449    1.8661 H   0  0  0  0  0  0  0  0  0  0  0  0
    1.2154    0.9077   -0.4375 H   0  0  0  0  0  0  0  0  0  0  0  0
    0.6246    0.4340    1.1467 H   0  0  0  0  0  0  0  0  0  0  0  0
    2.4687   -1.2581   -0.6433 H   0  0  0  0  0  0  0  0  0  0  0  0
    1.8642   -1.7597    0.9342 H   0  0  0  0  0  0  0  0  0  0  0  0
    4.4000    1.2547    0.9457 H   0  0  0  0  0  0  0  0  0  0  0  0
   -1.6239    0.0244   -2.0270 H   0  0  0  0  0  0  0  0  0  0  0  0
   -3.8981    1.9346   -0.4975 H   0  0  0  0  0  0  0  0  0  0  0  0
   -2.6844    2.9812   -1.2889 H   0  0  0  0  0  0  0  0  0  0  0  0
   -3.2334    1.4774   -2.0727 H   0  0  0  0  0  0  0  0  0  0  0  0
  1 14  1  6  0  0  0
  1  5  1  0  0  0  0
  1  2  1  0  0  0  0
  2  4  1  0  0  0  0
  3  2  2  0  0  0  0
  4 15  1  0  0  0  0
  5  6  1  0  0  0  0
  5 17  1  0  0  0  0
  6 19  1  0  0  0  0
  6  7  1  0  0  0  0
  7  8  2  0  0  0  0
  9 20  1  0  0  0  0
  9  7  1  0  0  0  0
 10  1  1  0  0  0  0
 10 11  1  0  0  0  0
 11 12  2  0  0  0  0
 13 22  1  0  0  0  0
 13 11  1  0  0  0  0
 16  5  1  0  0  0  0
 18  6  1  0  0  0  0
 21 10  1  0  0  0  0
 23 13  1  0  0  0  0
 24 13  1  0  0  0  0
M  END
