0.431554
 OpenBabel10231816213D

 39 41  0  0  1  0  0  0  0  0999 V2000
   -2.9271    0.4869   -1.7753 N   0  0  0  0  0  0  0  0  0  0  0  0
   -1.7254   -0.0340   -2.0727 C   0  0  0  0  0  0  0  0  0  0  0  0
   -0.8388   -0.5657   -1.1983 N   0  0  0  0  0  0  0  0  0  0  0  0
   -1.1004   -0.5675    0.1314 C   0  0  0  0  0  0  0  0  0  0  0  0
   -2.3394   -0.0551    0.5373 C   0  0  0  0  0  0  0  0  0  0  0  0
   -3.1612    0.4343   -0.4588 C   0  0  0  0  0  0  0  0  0  0  0  0
   -4.3086    0.8739    0.1375 O   0  0  0  0  0  0  0  0  0  0  0  0
   -4.1081    0.6251    1.4685 C   0  0  0  0  0  0  0  0  0  0  0  0
   -2.9425    0.0791    1.7696 N   0  0  0  0  0  0  0  0  0  0  0  0
   -5.2173    0.9978    2.3685 C   0  0  0  0  0  0  0  0  0  0  0  0
   -0.1873   -1.0795    1.0481 N   0  0  0  0  0  0  0  0  0  0  0  0
    1.2438   -1.1929    0.7554 C   0  0  1  0  0  0  0  0  0  0  0  0
    1.5468   -2.2808   -0.2794 C   0  0  0  0  0  0  0  0  0  0  0  0
    3.0161   -2.4065   -0.5887 C   0  0  0  0  0  0  0  0  0  0  0  0
    3.4726   -2.3229   -1.7205 O   0  0  0  0  0  0  0  0  0  0  0  0
    3.8033   -2.6906    0.4714 O   0  0  0  0  0  0  0  0  0  0  0  0
    1.9220    0.1502    0.5212 C   0  0  0  0  0  0  0  0  0  0  0  0
    1.9667    0.7442   -0.7496 C   0  0  0  0  0  0  0  0  0  0  0  0
    2.6663    1.9318   -0.9670 C   0  0  0  0  0  0  0  0  0  0  0  0
    3.3438    2.5402    0.0833 C   0  0  0  0  0  0  0  0  0  0  0  0
    3.3133    1.9683    1.3524 C   0  0  0  0  0  0  0  0  0  0  0  0
    2.6001    0.7865    1.5742 C   0  0  0  0  0  0  0  0  0  0  0  0
   -1.3089   -0.0259   -3.5129 C   0  0  0  0  0  0  0  0  0  0  0  0
   -5.4139    2.0726    2.3083 H   0  0  0  0  0  0  0  0  0  0  0  0
   -4.9742    0.7502    3.4054 H   0  0  0  0  0  0  0  0  0  0  0  0
   -6.1306    0.4612    2.0928 H   0  0  0  0  0  0  0  0  0  0  0  0
   -0.4198   -0.7778    1.9937 H   0  0  0  0  0  0  0  0  0  0  0  0
    1.6693   -1.5747    1.6937 H   0  0  0  0  0  0  0  0  0  0  0  0
    1.1801   -3.2570    0.0615 H   0  0  0  0  0  0  0  0  0  0  0  0
    1.0446   -2.0905   -1.2335 H   0  0  0  0  0  0  0  0  0  0  0  0
    3.3483   -2.7891    1.3258 H   0  0  0  0  0  0  0  0  0  0  0  0
    1.4824    0.2728   -1.6000 H   0  0  0  0  0  0  0  0  0  0  0  0
    2.6960    2.3643   -1.9635 H   0  0  0  0  0  0  0  0  0  0  0  0
    3.9069    3.4526   -0.0929 H   0  0  0  0  0  0  0  0  0  0  0  0
    3.8590    2.4353    2.1674 H   0  0  0  0  0  0  0  0  0  0  0  0
    2.6098    0.3542    2.5723 H   0  0  0  0  0  0  0  0  0  0  0  0
   -1.2170   -1.0516   -3.8782 H   0  0  0  0  0  0  0  0  0  0  0  0
   -2.0340    0.5072   -4.1321 H   0  0  0  0  0  0  0  0  0  0  0  0
   -0.3367    0.4734   -3.6159 H   0  0  0  0  0  0  0  0  0  0  0  0
  1  6  1  0  0  0  0
  2  1  2  0  0  0  0
  2  3  1  0  0  0  0
  3  4  2  0  0  0  0
  4  5  1  0  0  0  0
  4 11  1  0  0  0  0
  5  9  1  0  0  0  0
  6  7  1  0  0  0  0
  6  5  2  0  0  0  0
  7  8  1  0  0  0  0
  8  9  2  0  0  0  0
  8 10  1  0  0  0  0
 10 25  1  0  0  0  0
 11 27  1  0  0  0  0
 12 11  1  0  0  0  0
 12 28  1  1  0  0  0
 13 29  1  0  0  0  0
 13 12  1  0  0  0  0
 14 13  1  0  0  0  0
 14 16  1  0  0  0  0
 15 14  2  0  0  0  0
 16 31  1  0  0  0  0
 17 12  1  0  0  0  0
 17 22  2  0  0  0  0
 18 17  1  0  0  0  0
 19 18  2  0  0  0  0
 19 20  1  0  0  0  0
 20 21  2  0  0  0  0
 21 22  1  0  0  0  0
 21 35  1  0  0  0  0
 22 36  1  0  0  0  0
 23  2  1  0  0  0  0
 24 10  1  0  0  0  0
 26 10  1  0  0  0  0
 30 13  1  0  0  0  0
 32 18  1  0  0  0  0
 33 19  1  0  0  0  0
 34 20  1  0  0  0  0
 37 23  1  0  0  0  0
 38 23  1  0  0  0  0
 39 23  1  0  0  0  0
M  END
