-6.26278
 OpenBabel10231816213D

 66 68  0  0  1  0  0  0  0  0999 V2000
    0.5989   -0.0071    0.7444 C   0  0  2  0  0  0  0  0  0  0  0  0
    0.8912   -0.6201   -0.6553 C   0  0  0  0  0  0  0  0  0  0  0  0
   -0.2345   -1.4556   -1.2325 C   0  0  0  0  0  0  0  0  0  0  0  0
   -1.1206   -0.8992   -2.1680 C   0  0  0  0  0  0  0  0  0  0  0  0
   -2.2987   -1.5653   -2.5198 C   0  0  0  0  0  0  0  0  0  0  0  0
   -2.5972   -2.7940   -1.9377 C   0  0  0  0  0  0  0  0  0  0  0  0
   -1.6422   -3.4351   -1.1584 C   0  0  0  0  0  0  0  0  0  0  0  0
   -0.4724   -2.7601   -0.7906 C   0  0  0  0  0  0  0  0  0  0  0  0
   -3.8423   -3.3021   -2.1583 O   0  0  0  0  0  0  0  0  0  0  0  0
   -4.6319   -3.5940   -0.9875 C   0  0  0  0  0  0  0  0  0  0  0  0
   -4.9687   -2.3703   -0.1125 C   0  0  0  0  0  0  0  0  0  0  0  0
   -3.8770   -2.0707    0.9167 C   0  0  0  0  0  0  0  0  0  0  0  0
   -4.1720   -0.8869    1.8015 C   0  0  0  0  0  0  0  0  0  0  0  0
   -4.9290   -1.0044    2.7814 O   0  0  0  0  0  0  0  0  0  0  0  0
   -3.5707    0.3140    1.5674 N   0  0  0  0  0  0  0  0  0  0  0  0
   -3.1136    0.8391    0.2847 C   0  0  2  0  0  0  0  0  0  0  0  0
   -1.5969    1.0930    0.1974 C   0  0  0  0  0  0  0  0  0  0  0  0
   -1.1136    1.8441   -0.6410 O   0  0  0  0  0  0  0  0  0  0  0  0
   -0.8247    0.2747    0.9805 N   0  0  0  0  0  0  0  0  0  0  0  0
   -3.8402    2.1333   -0.0864 C   0  0  0  0  0  0  0  0  0  0  0  0
   -3.6404    3.2195    0.9515 C   0  0  0  0  0  0  0  0  0  0  0  0
   -3.7067    3.0130    2.1617 O   0  0  0  0  0  0  0  0  0  0  0  0
   -3.4380    4.4743    0.4606 N   0  0  0  0  0  0  0  0  0  0  0  0
    1.4920    1.2226    1.0321 C   0  0  2  0  0  0  0  0  0  0  0  0
    1.4859    2.1847   -0.0392 O   0  0  0  0  0  0  0  0  0  0  0  0
    2.9592    0.8294    1.2516 C   0  0  0  0  0  0  0  0  0  0  0  0
    3.7203    2.0607    1.4798 N   0  0  0  0  0  0  0  0  0  0  0  0
    5.3637    2.0114    1.7459 S   0  0  0  0  0  0  0  0  0  0  0  0
    5.5859    1.2611    2.9632 O   0  0  0  0  0  0  0  0  0  0  0  0
    5.8181    3.3744    1.5861 O   0  0  0  0  0  0  0  0  0  0  0  0
    6.0082    1.0563    0.3946 C   0  0  0  0  0  0  0  0  0  0  0  0
    6.2983    1.6700   -0.8233 C   0  0  0  0  0  0  0  0  0  0  0  0
    6.8026    0.9043   -1.8774 C   0  0  0  0  0  0  0  0  0  0  0  0
    7.0327   -0.4625   -1.7045 C   0  0  0  0  0  0  0  0  0  0  0  0
    6.7681   -1.0655   -0.4743 C   0  0  0  0  0  0  0  0  0  0  0  0
    6.2650   -0.3031    0.5803 C   0  0  0  0  0  0  0  0  0  0  0  0
    0.8299   -0.7585    1.5104 H   0  0  0  0  0  0  0  0  0  0  0  0
    1.1290    0.1856   -1.3602 H   0  0  0  0  0  0  0  0  0  0  0  0
    1.7979   -1.2361   -0.5867 H   0  0  0  0  0  0  0  0  0  0  0  0
   -0.9223    0.0926   -2.5752 H   0  0  0  0  0  0  0  0  0  0  0  0
   -3.0102   -1.1010   -3.1974 H   0  0  0  0  0  0  0  0  0  0  0  0
   -1.8315   -4.4349   -0.7837 H   0  0  0  0  0  0  0  0  0  0  0  0
    0.2352   -3.2457   -0.1257 H   0  0  0  0  0  0  0  0  0  0  0  0
   -4.1805   -4.3890   -0.3832 H   0  0  0  0  0  0  0  0  0  0  0  0
   -5.5696   -3.9963   -1.3993 H   0  0  0  0  0  0  0  0  0  0  0  0
   -5.1595   -1.5023   -0.7491 H   0  0  0  0  0  0  0  0  0  0  0  0
   -5.8932   -2.5760    0.4432 H   0  0  0  0  0  0  0  0  0  0  0  0
   -3.7734   -2.9355    1.5863 H   0  0  0  0  0  0  0  0  0  0  0  0
   -2.9034   -1.9258    0.4546 H   0  0  0  0  0  0  0  0  0  0  0  0
   -3.8108    1.0334    2.2505 H   0  0  0  0  0  0  0  0  0  0  0  0
   -3.3423    0.0993   -0.4881 H   0  0  0  0  0  0  0  0  0  0  0  0
   -1.3206   -0.3064    1.6462 H   0  0  0  0  0  0  0  0  0  0  0  0
   -4.9162    1.9420   -0.1565 H   0  0  0  0  0  0  0  0  0  0  0  0
   -3.4945    2.4840   -1.0648 H   0  0  0  0  0  0  0  0  0  0  0  0
   -3.2026    4.6385   -0.5090 H   0  0  0  0  0  0  0  0  0  0  0  0
   -3.2421    5.2177    1.1229 H   0  0  0  0  0  0  0  0  0  0  0  0
    1.1197    1.7248    1.9320 H   0  0  0  0  0  0  0  0  0  0  0  0
    0.5501    2.3074   -0.3099 H   0  0  0  0  0  0  0  0  0  0  0  0
    3.3462    0.3337    0.3566 H   0  0  0  0  0  0  0  0  0  0  0  0
    3.0499    0.1673    2.1124 H   0  0  0  0  0  0  0  0  0  0  0  0
    3.4587    2.8320    0.8615 H   0  0  0  0  0  0  0  0  0  0  0  0
    6.1319    2.7352   -0.9533 H   0  0  0  0  0  0  0  0  0  0  0  0
    7.0174    1.3767   -2.8330 H   0  0  0  0  0  0  0  0  0  0  0  0
    7.4252   -1.0559   -2.5278 H   0  0  0  0  0  0  0  0  0  0  0  0
    6.9555   -2.1270   -0.3329 H   0  0  0  0  0  0  0  0  0  0  0  0
    6.0670   -0.7638    1.5446 H   0  0  0  0  0  0  0  0  0  0  0  0
  1 19  1  0  0  0  0
  1 24  1  0  0  0  0
  1 37  1  1  0  0  0
  2 39  1  0  0  0  0
  2  1  1  0  0  0  0
  3  8  2  0  0  0  0
  3  2  1  0  0  0  0
  4  3  1  0  0  0  0
  5  4  2  0  0  0  0
  5  6  1  0  0  0  0
  6  7  2  0  0  0  0
  7  8  1  0  0  0  0
  7 42  1  0  0  0  0
  8 43  1  0  0  0  0
  9  6  1  0  0  0  0
  9 10  1  0  0  0  0
 10 44  1  0  0  0  0
 10 11  1  0  0  0  0
 11 47  1  0  0  0  0
 11 12  1  0  0  0  0
 12 48  1  0  0  0  0
 12 13  1  0  0  0  0
 13 14  2  0  0  0  0
 15 13  1  0  0  0  0
 15 50  1  0  0  0  0
 16 51  1  6  0  0  0
 16 15  1  0  0  0  0
 17 16  1  0  0  0  0
 17 19  1  0  0  0  0
 18 17  2  0  0  0  0
 19 52  1  0  0  0  0
 20 16  1  0  0  0  0
 20 21  1  0  0  0  0
 21 22  2  0  0  0  0
 23 21  1  0  0  0  0
 23 56  1  0  0  0  0
 24 26  1  0  0  0  0
 24 57  1  1  0  0  0
 25 24  1  0  0  0  0
 26 27  1  0  0  0  0
 26 60  1  0  0  0  0
 27 28  1  0  0  0  0
 28 29  2  0  0  0  0
 30 28  2  0  0  0  0
 31 36  1  0  0  0  0
 31 28  1  0  0  0  0
 32 31  2  0  0  0  0
 33 34  2  0  0  0  0
 33 32  1  0  0  0  0
 34 35  1  0  0  0  0
 35 65  1  0  0  0  0
 35 36  2  0  0  0  0
 36 66  1  0  0  0  0
 38  2  1  0  0  0  0
 40  4  1  0  0  0  0
 41  5  1  0  0  0  0
 45 10  1  0  0  0  0
 46 11  1  0  0  0  0
 49 12  1  0  0  0  0
 53 20  1  0  0  0  0
 54 20  1  0  0  0  0
 55 23  1  0  0  0  0
 58 25  1  0  0  0  0
 59 26  1  0  0  0  0
 61 27  1  0  0  0  0
 62 32  1  0  0  0  0
 63 33  1  0  0  0  0
 64 34  1  0  0  0  0
M  END
