-62.9889
 OpenBabel10231816213D

 39 40  0  0  0  0  0  0  0  0999 V2000
    2.0731   -0.9865    1.1191 S   0  0  0  0  0  0  0  0  0  0  0  0
    1.0334   -0.9662    2.1242 O   0  0  0  0  0  0  0  0  0  0  0  0
    3.3385   -1.6434    1.3696 O   0  0  0  0  0  0  0  0  0  0  0  0
    2.4065    0.5941    0.7016 N   0  0  0  0  0  0  0  0  0  0  0  0
    3.1210    1.4851    1.5185 C   0  0  0  0  0  0  0  0  0  0  0  0
    3.6372    2.4767    0.9847 O   0  0  0  0  0  0  0  0  0  0  0  0
    3.2481    1.1660    2.9861 C   0  0  0  0  0  0  0  0  0  0  0  0
    3.9790    2.2587    3.7513 C   0  0  0  0  0  0  0  0  0  0  0  0
    1.4177   -1.6501   -0.3799 C   0  0  0  0  0  0  0  0  0  0  0  0
    0.0821   -1.4833   -0.7340 C   0  0  0  0  0  0  0  0  0  0  0  0
   -0.7667   -0.7232    0.0790 N   0  0  0  0  0  0  0  0  0  0  0  0
   -2.0236   -0.2010   -0.2030 C   0  0  0  0  0  0  0  0  0  0  0  0
   -2.3196    0.2843   -1.4744 C   0  0  0  0  0  0  0  0  0  0  0  0
   -3.5928    0.7415   -1.7916 C   0  0  0  0  0  0  0  0  0  0  0  0
   -4.5813    0.7273   -0.8100 C   0  0  0  0  0  0  0  0  0  0  0  0
   -4.2921    0.2574    0.4720 C   0  0  0  0  0  0  0  0  0  0  0  0
   -3.0185   -0.2163    0.7714 C   0  0  0  0  0  0  0  0  0  0  0  0
   -3.8788    1.2530   -3.1655 C   0  0  0  0  0  0  0  0  0  0  0  0
   -4.9443    0.6349   -3.7436 F   0  0  0  0  0  0  0  0  0  0  0  0
   -4.1551    2.5845   -3.1778 F   0  0  0  0  0  0  0  0  0  0  0  0
   -2.8295    1.0718   -4.0164 F   0  0  0  0  0  0  0  0  0  0  0  0
   -0.3534   -2.0335   -1.9503 C   0  0  0  0  0  0  0  0  0  0  0  0
    0.5563   -2.7212   -2.7316 C   0  0  0  0  0  0  0  0  0  0  0  0
    1.8484   -2.8974   -2.3949 N   0  0  0  0  0  0  0  0  0  0  0  0
    2.2477   -2.3741   -1.2097 C   0  0  0  0  0  0  0  0  0  0  0  0
    2.5250    0.7855   -0.2879 H   0  0  0  0  0  0  0  0  0  0  0  0
    2.2445    1.0253    3.3993 H   0  0  0  0  0  0  0  0  0  0  0  0
    3.7913    0.2210    3.0859 H   0  0  0  0  0  0  0  0  0  0  0  0
    4.0650    2.0079    4.8132 H   0  0  0  0  0  0  0  0  0  0  0  0
    4.9898    2.4055    3.3535 H   0  0  0  0  0  0  0  0  0  0  0  0
    3.4524    3.2163    3.6684 H   0  0  0  0  0  0  0  0  0  0  0  0
   -0.4988   -0.7101    1.0664 H   0  0  0  0  0  0  0  0  0  0  0  0
   -1.5300    0.3326   -2.2247 H   0  0  0  0  0  0  0  0  0  0  0  0
   -5.5764    1.0897   -1.0521 H   0  0  0  0  0  0  0  0  0  0  0  0
   -5.0656    0.2590    1.2344 H   0  0  0  0  0  0  0  0  0  0  0  0
   -2.7874   -0.5937    1.7633 H   0  0  0  0  0  0  0  0  0  0  0  0
   -1.3896   -1.9707   -2.2733 H   0  0  0  0  0  0  0  0  0  0  0  0
    0.2545   -3.1642   -3.6742 H   0  0  0  0  0  0  0  0  0  0  0  0
    3.2921   -2.5431   -0.9671 H   0  0  0  0  0  0  0  0  0  0  0  0
  1  3  2  0  0  0  0
  1  2  2  0  0  0  0
  4  1  1  0  0  0  0
  4  5  1  0  0  0  0
  5  7  1  0  0  0  0
  6  5  2  0  0  0  0
  7 28  1  0  0  0  0
  7 27  1  0  0  0  0
  7  8  1  0  0  0  0
  8 29  1  0  0  0  0
  9  1  1  0  0  0  0
 10  9  1  0  0  0  0
 10 11  1  0  0  0  0
 11 32  1  0  0  0  0
 12 11  1  0  0  0  0
 12 17  2  0  0  0  0
 13 12  1  0  0  0  0
 14 13  2  0  0  0  0
 14 15  1  0  0  0  0
 15 16  2  0  0  0  0
 16 17  1  0  0  0  0
 16 35  1  0  0  0  0
 17 36  1  0  0  0  0
 18 14  1  0  0  0  0
 19 18  1  0  0  0  0
 20 18  1  0  0  0  0
 21 18  1  0  0  0  0
 22 10  2  0  0  0  0
 23 24  2  0  0  0  0
 23 22  1  0  0  0  0
 24 25  1  0  0  0  0
 25 39  1  0  0  0  0
 25  9  2  0  0  0  0
 26  4  1  0  0  0  0
 30  8  1  0  0  0  0
 31  8  1  0  0  0  0
 33 13  1  0  0  0  0
 34 15  1  0  0  0  0
 37 22  1  0  0  0  0
 38 23  1  0  0  0  0
M  END
