-83.9613
 OpenBabel10231816213D

 35 36  0  0  0  0  0  0  0  0999 V2000
   -3.8046    0.1401    1.5391 N   0  0  0  0  0  0  0  0  0  0  0  0
   -4.1879   -1.1014    1.2708 C   0  0  0  0  0  0  0  0  0  0  0  0
   -3.7376   -1.8555    0.2613 N   0  0  0  0  0  0  0  0  0  0  0  0
   -2.8146   -1.3035   -0.5407 C   0  0  0  0  0  0  0  0  0  0  0  0
   -2.3160   -0.0253   -0.3428 C   0  0  0  0  0  0  0  0  0  0  0  0
   -2.8626    0.6639    0.7301 C   0  0  0  0  0  0  0  0  0  0  0  0
   -1.2466    0.6060   -1.1927 C   0  0  0  0  0  0  0  0  0  0  0  0
    0.1654    0.4007   -0.6900 C   0  0  0  0  0  0  0  0  0  0  0  0
    1.0952    1.4426   -0.7774 C   0  0  0  0  0  0  0  0  0  0  0  0
    2.4051    1.2661   -0.3141 C   0  0  0  0  0  0  0  0  0  0  0  0
    2.7992    0.0399    0.2300 C   0  0  0  0  0  0  0  0  0  0  0  0
    1.8865   -1.0054    0.3105 C   0  0  0  0  0  0  0  0  0  0  0  0
    0.5833   -0.8231   -0.1558 C   0  0  0  0  0  0  0  0  0  0  0  0
    4.1010   -0.0292    0.6510 O   0  0  0  0  0  0  0  0  0  0  0  0
    4.5443   -1.2532    1.2078 C   0  0  0  0  0  0  0  0  0  0  0  0
    3.3728    2.2368   -0.3523 O   0  0  0  0  0  0  0  0  0  0  0  0
    3.0043    3.4948   -0.8855 C   0  0  0  0  0  0  0  0  0  0  0  0
   -2.2817   -2.1573   -1.5081 N   0  0  0  0  0  0  0  0  0  0  0  0
   -5.1184   -1.6778    2.1087 N   0  0  0  0  0  0  0  0  0  0  0  0
   -2.5552    1.6774    0.9790 H   0  0  0  0  0  0  0  0  0  0  0  0
   -1.3177    0.2575   -2.2331 H   0  0  0  0  0  0  0  0  0  0  0  0
   -1.4365    1.6867   -1.2543 H   0  0  0  0  0  0  0  0  0  0  0  0
    0.7844    2.3940   -1.1945 H   0  0  0  0  0  0  0  0  0  0  0  0
    2.1536   -1.9686    0.7276 H   0  0  0  0  0  0  0  0  0  0  0  0
   -0.1077   -1.6558   -0.0749 H   0  0  0  0  0  0  0  0  0  0  0  0
    5.5932   -1.1063    1.4760 H   0  0  0  0  0  0  0  0  0  0  0  0
    3.9843   -1.5066    2.1143 H   0  0  0  0  0  0  0  0  0  0  0  0
    4.4812   -2.0697    0.4803 H   0  0  0  0  0  0  0  0  0  0  0  0
    2.2060    3.9596   -0.2962 H   0  0  0  0  0  0  0  0  0  0  0  0
    2.7024    3.4101   -1.9354 H   0  0  0  0  0  0  0  0  0  0  0  0
    3.8928    4.1259   -0.8280 H   0  0  0  0  0  0  0  0  0  0  0  0
   -2.8649   -2.9778   -1.6520 H   0  0  0  0  0  0  0  0  0  0  0  0
   -1.9519   -1.7236   -2.3544 H   0  0  0  0  0  0  0  0  0  0  0  0
   -5.5529   -2.5174    1.7726 H   0  0  0  0  0  0  0  0  0  0  0  0
   -5.5981   -1.0444    2.7232 H   0  0  0  0  0  0  0  0  0  0  0  0
  2  1  1  0  0  0  0
  2 19  1  0  0  0  0
  3  2  2  0  0  0  0
  4  5  2  0  0  0  0
  4  3  1  0  0  0  0
  5  6  1  0  0  0  0
  6 20  1  0  0  0  0
  6  1  2  0  0  0  0
  7  8  1  0  0  0  0
  7  5  1  0  0  0  0
  8 13  1  0  0  0  0
  9  8  2  0  0  0  0
  9 10  1  0  0  0  0
 10 11  2  0  0  0  0
 11 12  1  0  0  0  0
 11 14  1  0  0  0  0
 12 24  1  0  0  0  0
 13 25  1  0  0  0  0
 13 12  2  0  0  0  0
 14 15  1  0  0  0  0
 15 26  1  0  0  0  0
 15 27  1  0  0  0  0
 16 10  1  0  0  0  0
 17 31  1  0  0  0  0
 17 16  1  0  0  0  0
 17 29  1  0  0  0  0
 18  4  1  0  0  0  0
 19 35  1  0  0  0  0
 21  7  1  0  0  0  0
 22  7  1  0  0  0  0
 23  9  1  0  0  0  0
 28 15  1  0  0  0  0
 30 17  1  0  0  0  0
 32 18  1  0  0  0  0
 33 18  1  0  0  0  0
 34 19  1  0  0  0  0
M  END
