6.46898
 OpenBabel10231816213D

 66 68  0  0  1  0  0  0  0  0999 V2000
    0.8987   -1.0934    1.9848 C   0  0  2  0  0  0  0  0  0  0  0  0
    0.3129   -2.5270    1.9813 C   0  0  0  0  0  0  0  0  0  0  0  0
   -0.9487   -2.7454    1.1798 C   0  0  0  0  0  0  0  0  0  0  0  0
   -2.1973   -2.7909    1.8094 C   0  0  0  0  0  0  0  0  0  0  0  0
   -3.3675   -2.9033    1.0541 C   0  0  0  0  0  0  0  0  0  0  0  0
   -3.3097   -2.9590   -0.3387 C   0  0  0  0  0  0  0  0  0  0  0  0
   -2.0703   -2.9965   -0.9693 C   0  0  0  0  0  0  0  0  0  0  0  0
   -0.8991   -2.8840   -0.2141 C   0  0  0  0  0  0  0  0  0  0  0  0
   -4.5150   -2.9750   -0.9798 O   0  0  0  0  0  0  0  0  0  0  0  0
   -4.6254   -2.2146   -2.1829 C   0  0  0  0  0  0  0  0  0  0  0  0
   -4.8800   -0.7158   -1.9670 C   0  0  0  0  0  0  0  0  0  0  0  0
   -3.8181    0.0231   -1.1422 C   0  0  0  0  0  0  0  0  0  0  0  0
   -4.1522    0.0745    0.3466 C   0  0  0  0  0  0  0  0  0  0  0  0
   -5.2955   -0.1309    0.7633 O   0  0  0  0  0  0  0  0  0  0  0  0
   -3.2029    0.4323    1.2437 N   0  0  0  0  0  0  0  0  0  0  0  0
   -1.7519    0.5443    1.1087 C   0  0  2  0  0  0  0  0  0  0  0  0
   -1.1626    0.3618    2.5309 C   0  0  0  0  0  0  0  0  0  0  0  0
   -1.7872    0.7409    3.5131 O   0  0  0  0  0  0  0  0  0  0  0  0
    0.0915   -0.1200    2.7323 N   0  0  0  0  0  0  0  0  0  0  0  0
   -1.3459    1.9282    0.6252 C   0  0  0  0  0  0  0  0  0  0  0  0
   -1.2730    1.9776   -0.8772 C   0  0  0  0  0  0  0  0  0  0  0  0
   -0.7898    1.0891   -1.5737 O   0  0  0  0  0  0  0  0  0  0  0  0
   -1.7283    3.1286   -1.4448 N   0  0  0  0  0  0  0  0  0  0  0  0
    1.3983   -0.6158    0.6073 C   0  0  2  0  0  0  0  0  0  0  0  0
    2.1723   -1.6715    0.0077 O   0  0  0  0  0  0  0  0  0  0  0  0
    2.2819    0.6368    0.7183 C   0  0  0  0  0  0  0  0  0  0  0  0
    3.5691    0.2559    1.3086 N   0  0  0  0  0  0  0  0  0  0  0  0
    4.7979    1.3812    1.4457 S   0  0  0  0  0  0  0  0  0  0  0  0
    5.9520    0.6468    1.9076 O   0  0  0  0  0  0  0  0  0  0  0  0
    4.2756    2.5301    2.1473 O   0  0  0  0  0  0  0  0  0  0  0  0
    5.0924    1.8528   -0.2456 C   0  0  0  0  0  0  0  0  0  0  0  0
    4.4419    2.9742   -0.7663 C   0  0  0  0  0  0  0  0  0  0  0  0
    4.6665    3.3523   -2.0899 C   0  0  0  0  0  0  0  0  0  0  0  0
    5.5516    2.6205   -2.8832 C   0  0  0  0  0  0  0  0  0  0  0  0
    6.2218    1.5167   -2.3509 C   0  0  0  0  0  0  0  0  0  0  0  0
    5.9998    1.1329   -1.0258 C   0  0  0  0  0  0  0  0  0  0  0  0
    1.8066   -1.1943    2.5979 H   0  0  0  0  0  0  0  0  0  0  0  0
    1.0765   -3.2234    1.6128 H   0  0  0  0  0  0  0  0  0  0  0  0
    0.1333   -2.8274    3.0221 H   0  0  0  0  0  0  0  0  0  0  0  0
   -2.2725   -2.7056    2.8906 H   0  0  0  0  0  0  0  0  0  0  0  0
   -4.3393   -2.8834    1.5419 H   0  0  0  0  0  0  0  0  0  0  0  0
   -1.9916   -3.1066   -2.0448 H   0  0  0  0  0  0  0  0  0  0  0  0
    0.0569   -2.8878   -0.7317 H   0  0  0  0  0  0  0  0  0  0  0  0
   -5.4962   -2.6293   -2.7087 H   0  0  0  0  0  0  0  0  0  0  0  0
   -3.7813   -2.3627   -2.8636 H   0  0  0  0  0  0  0  0  0  0  0  0
   -5.8677   -0.5753   -1.5170 H   0  0  0  0  0  0  0  0  0  0  0  0
   -4.9266   -0.2559   -2.9627 H   0  0  0  0  0  0  0  0  0  0  0  0
   -2.8296   -0.3950   -1.3210 H   0  0  0  0  0  0  0  0  0  0  0  0
   -3.8006    1.0659   -1.4709 H   0  0  0  0  0  0  0  0  0  0  0  0
   -3.5561    0.4709    2.2018 H   0  0  0  0  0  0  0  0  0  0  0  0
   -1.4077   -0.2414    0.4455 H   0  0  0  0  0  0  0  0  0  0  0  0
    0.3421   -0.0544    3.7172 H   0  0  0  0  0  0  0  0  0  0  0  0
   -2.0297    2.6931    1.0104 H   0  0  0  0  0  0  0  0  0  0  0  0
   -0.3416    2.1874    0.9758 H   0  0  0  0  0  0  0  0  0  0  0  0
   -1.6235    3.2399   -2.4512 H   0  0  0  0  0  0  0  0  0  0  0  0
   -1.9833    3.9484   -0.9126 H   0  0  0  0  0  0  0  0  0  0  0  0
    0.5625   -0.3994   -0.0561 H   0  0  0  0  0  0  0  0  0  0  0  0
    2.4032   -1.3929   -0.8937 H   0  0  0  0  0  0  0  0  0  0  0  0
    2.4576    1.0119   -0.2929 H   0  0  0  0  0  0  0  0  0  0  0  0
    1.7984    1.4142    1.3145 H   0  0  0  0  0  0  0  0  0  0  0  0
    3.9074   -0.6794    1.0722 H   0  0  0  0  0  0  0  0  0  0  0  0
    3.7583    3.5480   -0.1449 H   0  0  0  0  0  0  0  0  0  0  0  0
    4.1538    4.2188   -2.5010 H   0  0  0  0  0  0  0  0  0  0  0  0
    5.7280    2.9176   -3.9157 H   0  0  0  0  0  0  0  0  0  0  0  0
    6.9209    0.9564   -2.9683 H   0  0  0  0  0  0  0  0  0  0  0  0
    6.5380    0.2845   -0.6098 H   0  0  0  0  0  0  0  0  0  0  0  0
  1 37  1  1  0  0  0
  1 19  1  0  0  0  0
  2  1  1  0  0  0  0
  2 39  1  0  0  0  0
  3  4  1  0  0  0  0
  3  2  1  0  0  0  0
  4 40  1  0  0  0  0
  5 41  1  0  0  0  0
  5  4  2  0  0  0  0
  6  5  1  0  0  0  0
  7  6  2  0  0  0  0
  7  8  1  0  0  0  0
  8  3  2  0  0  0  0
  9  6  1  0  0  0  0
 10 11  1  0  0  0  0
 10  9  1  0  0  0  0
 11 46  1  0  0  0  0
 11 12  1  0  0  0  0
 12 13  1  0  0  0  0
 13 14  2  0  0  0  0
 13 15  1  0  0  0  0
 15 50  1  0  0  0  0
 16 51  1  6  0  0  0
 16 15  1  0  0  0  0
 16 17  1  0  0  0  0
 17 19  1  0  0  0  0
 17 18  2  0  0  0  0
 19 52  1  0  0  0  0
 20 54  1  0  0  0  0
 20 53  1  0  0  0  0
 20 16  1  0  0  0  0
 21 20  1  0  0  0  0
 22 21  2  0  0  0  0
 23 56  1  0  0  0  0
 23 21  1  0  0  0  0
 24 57  1  6  0  0  0
 24 26  1  0  0  0  0
 24  1  1  0  0  0  0
 25 24  1  0  0  0  0
 26 27  1  0  0  0  0
 26 60  1  0  0  0  0
 27 28  1  0  0  0  0
 28 29  2  0  0  0  0
 28 30  2  0  0  0  0
 31 28  1  0  0  0  0
 32 31  1  0  0  0  0
 32 62  1  0  0  0  0
 33 32  2  0  0  0  0
 34 35  2  0  0  0  0
 34 33  1  0  0  0  0
 35 36  1  0  0  0  0
 36 66  1  0  0  0  0
 36 31  2  0  0  0  0
 38  2  1  0  0  0  0
 42  7  1  0  0  0  0
 43  8  1  0  0  0  0
 44 10  1  0  0  0  0
 45 10  1  0  0  0  0
 47 11  1  0  0  0  0
 48 12  1  0  0  0  0
 49 12  1  0  0  0  0
 55 23  1  0  0  0  0
 58 25  1  0  0  0  0
 59 26  1  0  0  0  0
 61 27  1  0  0  0  0
 63 33  1  0  0  0  0
 64 34  1  0  0  0  0
 65 35  1  0  0  0  0
M  END
