46.8038
 OpenBabel10231816213D

 40 42  0  0  0  0  0  0  0  0999 V2000
    3.9669    3.7245    2.2254 O   0  0  0  0  0  0  0  0  0  0  0  0
    4.2923    2.5540    1.9755 C   0  0  0  0  0  0  0  0  0  0  0  0
    5.7061    2.0797    2.1669 C   0  0  0  0  0  0  0  0  0  0  0  0
    3.2708    1.5881    1.4748 C   0  0  0  0  0  0  0  0  0  0  0  0
    1.9582    2.0377    1.3048 C   0  0  0  0  0  0  0  0  0  0  0  0
    0.9663    1.1664    0.8434 C   0  0  0  0  0  0  0  0  0  0  0  0
    1.2805   -0.1641    0.5407 C   0  0  0  0  0  0  0  0  0  0  0  0
    2.5884   -0.6095    0.7009 C   0  0  0  0  0  0  0  0  0  0  0  0
    3.5809    0.2597    1.1705 C   0  0  0  0  0  0  0  0  0  0  0  0
    0.2324   -0.9809    0.0784 N   0  0  0  0  0  0  0  0  0  0  0  0
    0.3210   -2.2520   -0.4491 C   0  0  0  0  0  0  0  0  0  0  0  0
    1.3487   -2.9239   -0.4996 O   0  0  0  0  0  0  0  0  0  0  0  0
   -0.9356   -2.8040   -0.9707 C   0  0  0  0  0  0  0  0  0  0  0  0
   -1.1322   -4.1671   -1.3373 C   0  0  0  0  0  0  0  0  0  0  0  0
   -2.3742   -4.4160   -1.7588 N   0  0  0  0  0  0  0  0  0  0  0  0
   -2.9755   -3.2200   -1.6922 N   0  0  0  0  0  0  0  0  0  0  0  0
   -2.1716   -2.2031   -1.2238 C   0  0  0  0  0  0  0  0  0  0  0  0
   -2.6703   -0.8254   -1.1237 C   0  0  0  0  0  0  0  0  0  0  0  0
   -2.1297    0.1658   -1.9631 C   0  0  0  0  0  0  0  0  0  0  0  0
   -2.5490    1.4985   -1.8672 C   0  0  0  0  0  0  0  0  0  0  0  0
   -1.8328    2.6949   -2.8818 Cl  0  0  0  0  0  0  0  0  0  0  0  0
   -3.5286    1.8512   -0.9429 C   0  0  0  0  0  0  0  0  0  0  0  0
   -3.9806    3.1355   -0.8100 O   0  0  0  0  0  0  0  0  0  0  0  0
   -4.0852    0.8863   -0.1105 C   0  0  0  0  0  0  0  0  0  0  0  0
   -3.6539   -0.4395   -0.2000 C   0  0  0  0  0  0  0  0  0  0  0  0
   -4.2481   -1.3073    0.6732 O   0  0  0  0  0  0  0  0  0  0  0  0
    6.3112    2.9135    2.5394 H   0  0  0  0  0  0  0  0  0  0  0  0
    6.1304    1.7399    1.2186 H   0  0  0  0  0  0  0  0  0  0  0  0
    5.7452    1.2690    2.8993 H   0  0  0  0  0  0  0  0  0  0  0  0
    1.7180    3.0740    1.5383 H   0  0  0  0  0  0  0  0  0  0  0  0
   -0.0470    1.5406    0.7093 H   0  0  0  0  0  0  0  0  0  0  0  0
    2.8518   -1.6386    0.4763 H   0  0  0  0  0  0  0  0  0  0  0  0
    4.5892   -0.1274    1.2900 H   0  0  0  0  0  0  0  0  0  0  0  0
   -0.6794   -0.5608    0.1485 H   0  0  0  0  0  0  0  0  0  0  0  0
   -0.4124   -4.9818   -1.2935 H   0  0  0  0  0  0  0  0  0  0  0  0
   -3.9461   -3.1569   -1.9850 H   0  0  0  0  0  0  0  0  0  0  0  0
   -1.3648   -0.0929   -2.6920 H   0  0  0  0  0  0  0  0  0  0  0  0
   -3.5021    3.6945   -1.4515 H   0  0  0  0  0  0  0  0  0  0  0  0
   -4.8510    1.1598    0.6122 H   0  0  0  0  0  0  0  0  0  0  0  0
   -3.7881   -2.1624    0.6664 H   0  0  0  0  0  0  0  0  0  0  0  0
  2  3  1  0  0  0  0
  2  1  2  0  0  0  0
  3 27  1  0  0  0  0
  3 29  1  0  0  0  0
  4  2  1  0  0  0  0
  5  4  1  0  0  0  0
  5 30  1  0  0  0  0
  6  5  2  0  0  0  0
  7  8  2  0  0  0  0
  7  6  1  0  0  0  0
  8  9  1  0  0  0  0
  9 33  1  0  0  0  0
  9  4  2  0  0  0  0
 10 34  1  0  0  0  0
 10  7  1  0  0  0  0
 11 10  1  0  0  0  0
 12 11  2  0  0  0  0
 13 11  1  0  0  0  0
 14 35  1  0  0  0  0
 14 13  1  0  0  0  0
 15 16  1  0  0  0  0
 15 14  2  0  0  0  0
 16 17  1  0  0  0  0
 17 18  1  0  0  0  0
 17 13  2  0  0  0  0
 18 25  2  0  0  0  0
 19 20  2  0  0  0  0
 19 18  1  0  0  0  0
 20 22  1  0  0  0  0
 21 20  1  0  0  0  0
 22 23  1  0  0  0  0
 22 24  2  0  0  0  0
 24 39  1  0  0  0  0
 25 24  1  0  0  0  0
 25 26  1  0  0  0  0
 28  3  1  0  0  0  0
 31  6  1  0  0  0  0
 32  8  1  0  0  0  0
 36 16  1  0  0  0  0
 37 19  1  0  0  0  0
 38 23  1  0  0  0  0
 40 26  1  0  0  0  0
M  END
