-58.7449
 OpenBabel10231816213D

 39 40  0  0  0  0  0  0  0  0999 V2000
    1.0646    0.8533    1.6647 S   0  0  0  0  0  0  0  0  0  0  0  0
    1.2260    2.2881    1.6660 O   0  0  0  0  0  0  0  0  0  0  0  0
   -0.0417    0.2364    2.3733 O   0  0  0  0  0  0  0  0  0  0  0  0
    2.4037    0.1174    2.3280 N   0  0  0  0  0  0  0  0  0  0  0  0
    3.7119    0.6205    2.2676 C   0  0  0  0  0  0  0  0  0  0  0  0
    4.0483    1.5072    1.4984 O   0  0  0  0  0  0  0  0  0  0  0  0
    4.6658   -0.0435    3.2303 C   0  0  0  0  0  0  0  0  0  0  0  0
    6.1001    0.3835    2.9799 C   0  0  0  0  0  0  0  0  0  0  0  0
    1.0054    0.2862   -0.0000 C   0  0  0  0  0  0  0  0  0  0  0  0
   -0.1667   -0.2130   -0.5743 C   0  0  0  0  0  0  0  0  0  0  0  0
   -1.4132   -0.1515    0.0841 N   0  0  0  0  0  0  0  0  0  0  0  0
   -2.7183   -0.2287   -0.4211 C   0  0  0  0  0  0  0  0  0  0  0  0
   -3.0479    0.2327   -1.6994 C   0  0  0  0  0  0  0  0  0  0  0  0
   -4.3170    0.0215   -2.2517 C   0  0  0  0  0  0  0  0  0  0  0  0
   -5.2839   -0.6402   -1.4847 C   0  0  0  0  0  0  0  0  0  0  0  0
   -4.9795   -1.0807   -0.1950 C   0  0  0  0  0  0  0  0  0  0  0  0
   -3.7026   -0.8783    0.3295 C   0  0  0  0  0  0  0  0  0  0  0  0
   -4.6277    0.5021   -3.6457 C   0  0  0  0  0  0  0  0  0  0  0  0
   -5.5469    1.5038   -3.6590 F   0  0  0  0  0  0  0  0  0  0  0  0
   -5.1316   -0.4844   -4.4383 F   0  0  0  0  0  0  0  0  0  0  0  0
   -3.5379    0.9838   -4.3090 F   0  0  0  0  0  0  0  0  0  0  0  0
   -0.0667   -0.7153   -1.8820 C   0  0  0  0  0  0  0  0  0  0  0  0
    1.1454   -0.6898   -2.5471 C   0  0  0  0  0  0  0  0  0  0  0  0
    2.2698   -0.1934   -2.0092 N   0  0  0  0  0  0  0  0  0  0  0  0
    2.1707    0.2959   -0.7514 C   0  0  0  0  0  0  0  0  0  0  0  0
    2.1572   -0.5921    3.0122 H   0  0  0  0  0  0  0  0  0  0  0  0
    4.5789   -1.1304    3.1251 H   0  0  0  0  0  0  0  0  0  0  0  0
    4.3629    0.2343    4.2451 H   0  0  0  0  0  0  0  0  0  0  0  0
    6.2054    1.4716    3.0556 H   0  0  0  0  0  0  0  0  0  0  0  0
    6.7701   -0.0772    3.7111 H   0  0  0  0  0  0  0  0  0  0  0  0
    6.4268    0.0877    1.9770 H   0  0  0  0  0  0  0  0  0  0  0  0
   -1.3663   -0.1014    1.1063 H   0  0  0  0  0  0  0  0  0  0  0  0
   -2.3051    0.7771   -2.2805 H   0  0  0  0  0  0  0  0  0  0  0  0
   -6.2766   -0.8163   -1.8887 H   0  0  0  0  0  0  0  0  0  0  0  0
   -5.7302   -1.5969    0.3968 H   0  0  0  0  0  0  0  0  0  0  0  0
   -3.4709   -1.2555    1.3226 H   0  0  0  0  0  0  0  0  0  0  0  0
   -0.9215   -1.1488   -2.3927 H   0  0  0  0  0  0  0  0  0  0  0  0
    1.2398   -1.0736   -3.5590 H   0  0  0  0  0  0  0  0  0  0  0  0
    3.0996    0.7078   -0.3848 H   0  0  0  0  0  0  0  0  0  0  0  0
  1  2  2  0  0  0  0
  1  4  1  0  0  0  0
  1  3  2  0  0  0  0
  4 26  1  0  0  0  0
  5  4  1  0  0  0  0
  5  7  1  0  0  0  0
  6  5  2  0  0  0  0
  7 28  1  0  0  0  0
  8 29  1  0  0  0  0
  8  7  1  0  0  0  0
  8 30  1  0  0  0  0
  9  1  1  0  0  0  0
 10  9  1  0  0  0  0
 10 11  1  0  0  0  0
 11 32  1  0  0  0  0
 12 11  1  0  0  0  0
 12 17  2  0  0  0  0
 13 12  1  0  0  0  0
 14 13  2  0  0  0  0
 14 15  1  0  0  0  0
 15 16  2  0  0  0  0
 16 17  1  0  0  0  0
 16 35  1  0  0  0  0
 17 36  1  0  0  0  0
 18 14  1  0  0  0  0
 19 18  1  0  0  0  0
 20 18  1  0  0  0  0
 21 18  1  0  0  0  0
 22 10  2  0  0  0  0
 23 24  2  0  0  0  0
 23 22  1  0  0  0  0
 24 25  1  0  0  0  0
 25 39  1  0  0  0  0
 25  9  2  0  0  0  0
 27  7  1  0  0  0  0
 31  8  1  0  0  0  0
 33 13  1  0  0  0  0
 34 15  1  0  0  0  0
 37 22  1  0  0  0  0
 38 23  1  0  0  0  0
M  END
