-11.9483
 OpenBabel10231816213D

 39 41  0  0  1  0  0  0  0  0999 V2000
   -2.8327   -1.9132   -0.7989 N   0  0  0  0  0  0  0  0  0  0  0  0
   -1.6439   -1.8390   -1.4241 C   0  0  0  0  0  0  0  0  0  0  0  0
   -0.7103   -0.8752   -1.2706 N   0  0  0  0  0  0  0  0  0  0  0  0
   -0.9203    0.1371   -0.3949 C   0  0  0  0  0  0  0  0  0  0  0  0
   -2.1291    0.1523    0.3087 C   0  0  0  0  0  0  0  0  0  0  0  0
   -3.0009   -0.8885    0.0451 C   0  0  0  0  0  0  0  0  0  0  0  0
   -4.1082   -0.6960    0.8225 O   0  0  0  0  0  0  0  0  0  0  0  0
   -3.8351    0.4545    1.5132 C   0  0  0  0  0  0  0  0  0  0  0  0
   -2.6679    1.0042    1.2518 N   0  0  0  0  0  0  0  0  0  0  0  0
   -4.8850    0.9059    2.4491 C   0  0  0  0  0  0  0  0  0  0  0  0
    0.0328    1.1143   -0.2163 N   0  0  0  0  0  0  0  0  0  0  0  0
    1.3827    0.9428   -0.7335 C   0  0  1  0  0  0  0  0  0  0  0  0
    2.1373    2.2631   -0.6128 C   0  0  0  0  0  0  0  0  0  0  0  0
    1.4114    3.3409   -1.3576 C   0  0  0  0  0  0  0  0  0  0  0  0
    1.3664    3.4840   -2.5676 O   0  0  0  0  0  0  0  0  0  0  0  0
    0.7580    4.1867   -0.5327 O   0  0  0  0  0  0  0  0  0  0  0  0
    2.1540   -0.1439    0.0159 C   0  0  0  0  0  0  0  0  0  0  0  0
    2.0157   -0.3352    1.3997 C   0  0  0  0  0  0  0  0  0  0  0  0
    2.7485   -1.3213    2.0631 C   0  0  0  0  0  0  0  0  0  0  0  0
    3.6374   -2.1254    1.3551 C   0  0  0  0  0  0  0  0  0  0  0  0
    3.7932   -1.9488   -0.0174 C   0  0  0  0  0  0  0  0  0  0  0  0
    3.0574   -0.9647   -0.6821 C   0  0  0  0  0  0  0  0  0  0  0  0
   -1.3108   -2.9230   -2.4021 C   0  0  0  0  0  0  0  0  0  0  0  0
   -5.8174    1.1016    1.9116 H   0  0  0  0  0  0  0  0  0  0  0  0
   -5.0743    0.1420    3.2095 H   0  0  0  0  0  0  0  0  0  0  0  0
   -4.5806    1.8255    2.9557 H   0  0  0  0  0  0  0  0  0  0  0  0
   -0.1428    1.7814    0.5278 H   0  0  0  0  0  0  0  0  0  0  0  0
    1.3219    0.6668   -1.7961 H   0  0  0  0  0  0  0  0  0  0  0  0
    2.2497    2.5634    0.4368 H   0  0  0  0  0  0  0  0  0  0  0  0
    3.1503    2.1897   -1.0249 H   0  0  0  0  0  0  0  0  0  0  0  0
    0.2979    4.8122   -1.1310 H   0  0  0  0  0  0  0  0  0  0  0  0
    1.3195    0.2749    1.9722 H   0  0  0  0  0  0  0  0  0  0  0  0
    2.6199   -1.4623    3.1331 H   0  0  0  0  0  0  0  0  0  0  0  0
    4.2069   -2.8948    1.8726 H   0  0  0  0  0  0  0  0  0  0  0  0
    4.4833   -2.5804   -0.5748 H   0  0  0  0  0  0  0  0  0  0  0  0
    3.1883   -0.8467   -1.7563 H   0  0  0  0  0  0  0  0  0  0  0  0
   -1.2120   -2.4998   -3.4063 H   0  0  0  0  0  0  0  0  0  0  0  0
   -0.3655   -3.4012   -2.1267 H   0  0  0  0  0  0  0  0  0  0  0  0
   -2.0956   -3.6838   -2.4170 H   0  0  0  0  0  0  0  0  0  0  0  0
  1  6  2  0  0  0  0
  2  3  2  0  0  0  0
  2  1  1  0  0  0  0
  3  4  1  0  0  0  0
  4 11  1  0  0  0  0
  4  5  2  0  0  0  0
  5  9  1  0  0  0  0
  6  5  1  0  0  0  0
  6  7  1  0  0  0  0
  7  8  1  0  0  0  0
  8 10  1  0  0  0  0
  9  8  2  0  0  0  0
 10 26  1  0  0  0  0
 10 25  1  0  0  0  0
 11 27  1  0  0  0  0
 12 28  1  6  0  0  0
 12 13  1  0  0  0  0
 12 11  1  0  0  0  0
 12 17  1  0  0  0  0
 13 29  1  0  0  0  0
 14 13  1  0  0  0  0
 14 16  1  0  0  0  0
 15 14  2  0  0  0  0
 17 18  2  0  0  0  0
 18 32  1  0  0  0  0
 18 19  1  0  0  0  0
 19 33  1  0  0  0  0
 20 34  1  0  0  0  0
 20 19  2  0  0  0  0
 21 20  1  0  0  0  0
 22 21  2  0  0  0  0
 22 17  1  0  0  0  0
 23 38  1  0  0  0  0
 23  2  1  0  0  0  0
 24 10  1  0  0  0  0
 30 13  1  0  0  0  0
 31 16  1  0  0  0  0
 35 21  1  0  0  0  0
 36 22  1  0  0  0  0
 37 23  1  0  0  0  0
 39 23  1  0  0  0  0
M  END
