59.1949
 OpenBabel10231816213D

 36 36  0  0  1  0  0  0  0  0999 V2000
    4.4244    1.6408   -0.5430 C   0  0  0  0  0  0  0  0  0  0  0  0
    4.7807    0.3218    0.0734 C   0  0  0  0  0  0  0  0  0  0  0  0
    3.5472    0.4461   -0.7722 C   0  0  0  0  0  0  0  0  0  0  0  0
    2.2348    0.4383   -0.1588 N   0  0  0  0  0  0  0  0  0  0  0  0
    1.8736   -0.8696    0.3901 C   0  0  0  0  0  0  0  0  0  0  0  0
    0.5185   -0.7867    1.1179 C   0  0  0  0  0  0  0  0  0  0  0  0
   -0.6469   -0.3765    0.1619 C   0  0  1  0  0  0  0  0  0  0  0  0
   -0.8236   -1.3059   -0.9769 N   0  0  0  0  0  0  0  0  0  0  0  0
   -1.9740   -0.2979    0.9468 C   0  0  0  0  0  0  0  0  0  0  0  0
   -3.0547    0.5819    0.3056 C   0  0  0  0  0  0  0  0  0  0  0  0
   -3.5017    0.1186   -1.0851 C   0  0  0  0  0  0  0  0  0  0  0  0
   -4.7679    0.8312   -1.5477 C   0  0  0  0  0  0  0  0  0  0  0  0
    0.3112   -2.0533    1.7345 O   0  0  0  0  0  0  0  0  0  0  0  0
    0.5691    0.1808    2.1627 O   0  0  0  0  0  0  0  0  0  0  0  0
    5.0016    1.9954   -1.3948 H   0  0  0  0  0  0  0  0  0  0  0  0
    4.0727    2.4284    0.1068 H   0  0  0  0  0  0  0  0  0  0  0  0
    5.6115   -0.2441   -0.3507 H   0  0  0  0  0  0  0  0  0  0  0  0
    4.6805    0.2165    1.1456 H   0  0  0  0  0  0  0  0  0  0  0  0
    3.5696    0.0012   -1.7565 H   0  0  0  0  0  0  0  0  0  0  0  0
    2.1088    1.1390    0.5565 H   0  0  0  0  0  0  0  0  0  0  0  0
    2.6244   -1.1974    1.1197 H   0  0  0  0  0  0  0  0  0  0  0  0
    1.8369   -1.6344   -0.3895 H   0  0  0  0  0  0  0  0  0  0  0  0
   -0.4278    0.6251   -0.2254 H   0  0  0  0  0  0  0  0  0  0  0  0
   -0.7462   -2.2534   -0.6231 H   0  0  0  0  0  0  0  0  0  0  0  0
   -0.0329   -1.1694   -1.6183 H   0  0  0  0  0  0  0  0  0  0  0  0
   -1.7886    0.1019    1.9530 H   0  0  0  0  0  0  0  0  0  0  0  0
   -2.3657   -1.3119    1.0991 H   0  0  0  0  0  0  0  0  0  0  0  0
   -3.9167    0.5918    0.9807 H   0  0  0  0  0  0  0  0  0  0  0  0
   -2.6902    1.6141    0.2478 H   0  0  0  0  0  0  0  0  0  0  0  0
   -3.6777   -0.9620   -1.0768 H   0  0  0  0  0  0  0  0  0  0  0  0
   -2.7070    0.3199   -1.8114 H   0  0  0  0  0  0  0  0  0  0  0  0
   -5.6076    0.6203   -0.8782 H   0  0  0  0  0  0  0  0  0  0  0  0
   -4.6253    1.9152   -1.5842 H   0  0  0  0  0  0  0  0  0  0  0  0
   -5.0529    0.4968   -2.5522 H   0  0  0  0  0  0  0  0  0  0  0  0
   -0.4219   -1.9404    2.3579 H   0  0  0  0  0  0  0  0  0  0  0  0
    1.0636   -0.2221    2.8848 H   0  0  0  0  0  0  0  0  0  0  0  0
  1  2  1  0  0  0  0
  1 16  1  0  0  0  0
  2 18  1  0  0  0  0
  3  1  1  0  0  0  0
  3  4  1  0  0  0  0
  3  2  1  0  0  0  0
  4  5  1  0  0  0  0
  4 20  1  0  0  0  0
  5  6  1  0  0  0  0
  5 21  1  0  0  0  0
  6 13  1  0  0  0  0
  6 14  1  0  0  0  0
  7 23  1  6  0  0  0
  7  9  1  0  0  0  0
  7  6  1  0  0  0  0
  8 24  1  0  0  0  0
  8  7  1  0  0  0  0
  9 27  1  0  0  0  0
  9 26  1  0  0  0  0
 10  9  1  0  0  0  0
 10 28  1  0  0  0  0
 11 30  1  0  0  0  0
 11 10  1  0  0  0  0
 12 11  1  0  0  0  0
 12 32  1  0  0  0  0
 13 35  1  0  0  0  0
 14 36  1  0  0  0  0
 15  1  1  0  0  0  0
 17  2  1  0  0  0  0
 19  3  1  0  0  0  0
 22  5  1  0  0  0  0
 25  8  1  0  0  0  0
 29 10  1  0  0  0  0
 31 11  1  0  0  0  0
 33 12  1  0  0  0  0
 34 12  1  0  0  0  0
M  END
