-42.2271
 OpenBabel10231816213D

 24 23  0  0  1  0  0  0  0  0999 V2000
   -0.4572   -0.5307   -0.3044 C   0  0  2  0  0  0  0  0  0  0  0  0
   -0.9465   -1.7877    0.4115 C   0  0  0  0  0  0  0  0  0  0  0  0
   -1.9366   -1.8722    1.1249 O   0  0  0  0  0  0  0  0  0  0  0  0
   -0.1622   -2.8634    0.2018 O   0  0  0  0  0  0  0  0  0  0  0  0
    0.7031    0.1428    0.4383 C   0  0  0  0  0  0  0  0  0  0  0  0
    1.9722   -0.7109    0.4904 C   0  0  0  0  0  0  0  0  0  0  0  0
    3.1147    0.0324    1.1237 C   0  0  0  0  0  0  0  0  0  0  0  0
    3.0640    1.0830    1.7425 O   0  0  0  0  0  0  0  0  0  0  0  0
    4.2812   -0.6297    0.9903 O   0  0  0  0  0  0  0  0  0  0  0  0
   -1.6050    0.3760   -0.4049 N   0  0  0  0  0  0  0  0  0  0  0  0
   -1.6904    1.3393   -1.3788 C   0  0  0  0  0  0  0  0  0  0  0  0
   -0.8171    1.5257   -2.2193 O   0  0  0  0  0  0  0  0  0  0  0  0
   -2.9556    2.1500   -1.3287 C   0  0  0  0  0  0  0  0  0  0  0  0
   -0.1645   -0.8030   -1.3253 H   0  0  0  0  0  0  0  0  0  0  0  0
   -0.5805   -3.5829    0.7204 H   0  0  0  0  0  0  0  0  0  0  0  0
    0.3940    0.3996    1.4607 H   0  0  0  0  0  0  0  0  0  0  0  0
    0.9408    1.0960   -0.0516 H   0  0  0  0  0  0  0  0  0  0  0  0
    2.2661   -0.9999   -0.5243 H   0  0  0  0  0  0  0  0  0  0  0  0
    1.8093   -1.6111    1.0905 H   0  0  0  0  0  0  0  0  0  0  0  0
    4.9325   -0.0646    1.4572 H   0  0  0  0  0  0  0  0  0  0  0  0
   -2.3663    0.2498    0.2556 H   0  0  0  0  0  0  0  0  0  0  0  0
   -3.8227    1.4970   -1.4568 H   0  0  0  0  0  0  0  0  0  0  0  0
   -3.0257    2.6791   -0.3746 H   0  0  0  0  0  0  0  0  0  0  0  0
   -2.9476    2.8852   -2.1390 H   0  0  0  0  0  0  0  0  0  0  0  0
  1 14  1  6  0  0  0
  1  2  1  0  0  0  0
  1  5  1  0  0  0  0
  2  3  2  0  0  0  0
  4  2  1  0  0  0  0
  4 15  1  0  0  0  0
  5  6  1  0  0  0  0
  5 16  1  0  0  0  0
  6 19  1  0  0  0  0
  6  7  1  0  0  0  0
  7  8  2  0  0  0  0
  9  7  1  0  0  0  0
  9 20  1  0  0  0  0
 10  1  1  0  0  0  0
 10 21  1  0  0  0  0
 11 13  1  0  0  0  0
 11 10  1  0  0  0  0
 12 11  2  0  0  0  0
 13 23  1  0  0  0  0
 17  5  1  0  0  0  0
 18  6  1  0  0  0  0
 22 13  1  0  0  0  0
 24 13  1  0  0  0  0
M  END
