-10.8451
 OpenBabel10231816213D

 39 41  0  0  1  0  0  0  0  0999 V2000
   -3.1899   -1.5908   -1.0426 N   0  0  0  0  0  0  0  0  0  0  0  0
   -1.9720   -1.6326   -1.6153 C   0  0  0  0  0  0  0  0  0  0  0  0
   -0.8909   -0.9051   -1.2699 N   0  0  0  0  0  0  0  0  0  0  0  0
   -0.9861   -0.0146   -0.2551 C   0  0  0  0  0  0  0  0  0  0  0  0
   -2.2183    0.1232    0.3963 C   0  0  0  0  0  0  0  0  0  0  0  0
   -3.2327   -0.6853   -0.0513 C   0  0  0  0  0  0  0  0  0  0  0  0
   -4.3366   -0.4192    0.7084 O   0  0  0  0  0  0  0  0  0  0  0  0
   -3.9159    0.5477    1.5781 C   0  0  0  0  0  0  0  0  0  0  0  0
   -2.6534    0.9135    1.4400 N   0  0  0  0  0  0  0  0  0  0  0  0
   -4.9182    1.0410    2.5398 C   0  0  0  0  0  0  0  0  0  0  0  0
    0.1081    0.7160    0.1508 N   0  0  0  0  0  0  0  0  0  0  0  0
    1.3797    0.6268   -0.5327 C   0  0  1  0  0  0  0  0  0  0  0  0
    1.9607    2.0271   -0.7552 C   0  0  0  0  0  0  0  0  0  0  0  0
    1.1191    2.8230   -1.6964 C   0  0  0  0  0  0  0  0  0  0  0  0
    0.1590    2.4587   -2.3612 O   0  0  0  0  0  0  0  0  0  0  0  0
    1.5583    4.1051   -1.7870 O   0  0  0  0  0  0  0  0  0  0  0  0
    2.3457   -0.2433    0.2636 C   0  0  0  0  0  0  0  0  0  0  0  0
    2.8478    0.1623    1.5060 C   0  0  0  0  0  0  0  0  0  0  0  0
    3.7550   -0.6337    2.2064 C   0  0  0  0  0  0  0  0  0  0  0  0
    4.1701   -1.8551    1.6775 C   0  0  0  0  0  0  0  0  0  0  0  0
    3.6741   -2.2810    0.4471 C   0  0  0  0  0  0  0  0  0  0  0  0
    2.7671   -1.4796   -0.2532 C   0  0  0  0  0  0  0  0  0  0  0  0
   -1.7859   -2.6045   -2.7379 C   0  0  0  0  0  0  0  0  0  0  0  0
   -5.7749    1.4658    2.0072 H   0  0  0  0  0  0  0  0  0  0  0  0
   -5.2804    0.2180    3.1640 H   0  0  0  0  0  0  0  0  0  0  0  0
   -4.4916    1.8112    3.1883 H   0  0  0  0  0  0  0  0  0  0  0  0
   -0.0553    1.3398    0.9224 H   0  0  0  0  0  0  0  0  0  0  0  0
    1.2371    0.1537   -1.5089 H   0  0  0  0  0  0  0  0  0  0  0  0
    2.9707    1.9639   -1.1801 H   0  0  0  0  0  0  0  0  0  0  0  0
    2.0244    2.5750    0.1924 H   0  0  0  0  0  0  0  0  0  0  0  0
    0.9533    4.5470   -2.4284 H   0  0  0  0  0  0  0  0  0  0  0  0
    2.5237    1.1049    1.9363 H   0  0  0  0  0  0  0  0  0  0  0  0
    4.1325   -0.2961    3.1673 H   0  0  0  0  0  0  0  0  0  0  0  0
    4.8753   -2.4740    2.2262 H   0  0  0  0  0  0  0  0  0  0  0  0
    3.9882   -3.2347    0.0307 H   0  0  0  0  0  0  0  0  0  0  0  0
    2.3778   -1.8223   -1.2099 H   0  0  0  0  0  0  0  0  0  0  0  0
   -1.1265   -3.4194   -2.4341 H   0  0  0  0  0  0  0  0  0  0  0  0
   -2.7566   -3.0225   -3.0224 H   0  0  0  0  0  0  0  0  0  0  0  0
   -1.3425   -2.1099   -3.6073 H   0  0  0  0  0  0  0  0  0  0  0  0
  1  6  2  0  0  0  0
  2  3  2  0  0  0  0
  2  1  1  0  0  0  0
  3  4  1  0  0  0  0
  4 11  1  0  0  0  0
  4  5  2  0  0  0  0
  5  9  1  0  0  0  0
  6  5  1  0  0  0  0
  6  7  1  0  0  0  0
  7  8  1  0  0  0  0
  8 10  1  0  0  0  0
  9  8  2  0  0  0  0
 10 25  1  0  0  0  0
 10 26  1  0  0  0  0
 11 27  1  0  0  0  0
 12 28  1  6  0  0  0
 12 11  1  0  0  0  0
 12 17  1  0  0  0  0
 13 12  1  0  0  0  0
 13 30  1  0  0  0  0
 14 13  1  0  0  0  0
 15 14  2  0  0  0  0
 16 14  1  0  0  0  0
 17 18  1  0  0  0  0
 18 32  1  0  0  0  0
 18 19  2  0  0  0  0
 19 33  1  0  0  0  0
 20 19  1  0  0  0  0
 20 34  1  0  0  0  0
 21 20  2  0  0  0  0
 22 17  2  0  0  0  0
 22 21  1  0  0  0  0
 23 37  1  0  0  0  0
 23  2  1  0  0  0  0
 24 10  1  0  0  0  0
 29 13  1  0  0  0  0
 31 16  1  0  0  0  0
 35 21  1  0  0  0  0
 36 22  1  0  0  0  0
 38 23  1  0  0  0  0
 39 23  1  0  0  0  0
M  END
