-2.73766
 OpenBabel10231816213D

 66 68  0  0  1  0  0  0  0  0999 V2000
    0.4499   -0.1251    0.0667 C   0  0  2  0  0  0  0  0  0  0  0  0
    0.7365   -1.2567   -0.9410 C   0  0  0  0  0  0  0  0  0  0  0  0
   -0.4168   -2.2413   -0.9561 C   0  0  0  0  0  0  0  0  0  0  0  0
   -1.3121   -2.3065   -2.0308 C   0  0  0  0  0  0  0  0  0  0  0  0
   -2.4963   -3.0445   -1.9232 C   0  0  0  0  0  0  0  0  0  0  0  0
   -2.7932   -3.7146   -0.7446 C   0  0  0  0  0  0  0  0  0  0  0  0
   -1.8571   -3.7452    0.2887 C   0  0  0  0  0  0  0  0  0  0  0  0
   -0.6824   -2.9992    0.1876 C   0  0  0  0  0  0  0  0  0  0  0  0
   -3.9701   -4.3673   -0.5300 O   0  0  0  0  0  0  0  0  0  0  0  0
   -5.1647   -3.5785   -0.6585 C   0  0  0  0  0  0  0  0  0  0  0  0
   -5.3698   -2.5531    0.4667 C   0  0  0  0  0  0  0  0  0  0  0  0
   -4.5883   -1.2518    0.2667 C   0  0  0  0  0  0  0  0  0  0  0  0
   -4.8188   -0.2626    1.3895 C   0  0  0  0  0  0  0  0  0  0  0  0
   -5.6370   -0.4623    2.3028 O   0  0  0  0  0  0  0  0  0  0  0  0
   -4.1180    0.9019    1.3618 N   0  0  0  0  0  0  0  0  0  0  0  0
   -3.0878    1.3033    0.4201 C   0  0  2  0  0  0  0  0  0  0  0  0
   -1.6811    0.8593    0.8505 C   0  0  0  0  0  0  0  0  0  0  0  0
   -1.2655    0.9275    2.0029 O   0  0  0  0  0  0  0  0  0  0  0  0
   -0.8738    0.4675   -0.1977 N   0  0  0  0  0  0  0  0  0  0  0  0
   -3.0961    2.8155    0.2226 C   0  0  0  0  0  0  0  0  0  0  0  0
   -2.8966    3.5758    1.5230 C   0  0  0  0  0  0  0  0  0  0  0  0
   -3.4659    3.2910    2.5685 O   0  0  0  0  0  0  0  0  0  0  0  0
   -2.0802    4.6646    1.4377 N   0  0  0  0  0  0  0  0  0  0  0  0
    1.4989    0.9994    0.0602 C   0  0  2  0  0  0  0  0  0  0  0  0
    1.4790    1.7081   -1.1967 O   0  0  0  0  0  0  0  0  0  0  0  0
    2.9308    0.5203    0.2931 C   0  0  0  0  0  0  0  0  0  0  0  0
    3.4816   -0.0080   -0.9617 N   0  0  0  0  0  0  0  0  0  0  0  0
    4.9940   -0.7043   -0.9729 S   0  0  0  0  0  0  0  0  0  0  0  0
    4.9825   -1.7642    0.0052 O   0  0  0  0  0  0  0  0  0  0  0  0
    5.2972   -0.9456   -2.3713 O   0  0  0  0  0  0  0  0  0  0  0  0
    6.0639    0.5873   -0.3976 C   0  0  0  0  0  0  0  0  0  0  0  0
    6.2398    0.7861    0.9721 C   0  0  0  0  0  0  0  0  0  0  0  0
    7.0827    1.8037    1.4207 C   0  0  0  0  0  0  0  0  0  0  0  0
    7.7615    2.6053    0.5002 C   0  0  0  0  0  0  0  0  0  0  0  0
    7.6001    2.3872   -0.8693 C   0  0  0  0  0  0  0  0  0  0  0  0
    6.7562    1.3710   -1.3196 C   0  0  0  0  0  0  0  0  0  0  0  0
    0.4325   -0.5509    1.0792 H   0  0  0  0  0  0  0  0  0  0  0  0
    1.6501   -1.7865   -0.6495 H   0  0  0  0  0  0  0  0  0  0  0  0
    0.8961   -0.8372   -1.9417 H   0  0  0  0  0  0  0  0  0  0  0  0
   -1.1104   -1.7537   -2.9443 H   0  0  0  0  0  0  0  0  0  0  0  0
   -3.1915   -3.0782   -2.7544 H   0  0  0  0  0  0  0  0  0  0  0  0
   -2.0687   -4.3046    1.1959 H   0  0  0  0  0  0  0  0  0  0  0  0
    0.0173   -2.9713    1.0214 H   0  0  0  0  0  0  0  0  0  0  0  0
   -5.2367   -3.0944   -1.6389 H   0  0  0  0  0  0  0  0  0  0  0  0
   -5.9786   -4.3163   -0.6032 H   0  0  0  0  0  0  0  0  0  0  0  0
   -6.4363   -2.2930    0.5136 H   0  0  0  0  0  0  0  0  0  0  0  0
   -5.1071   -3.0027    1.4311 H   0  0  0  0  0  0  0  0  0  0  0  0
   -3.5129   -1.4396    0.2248 H   0  0  0  0  0  0  0  0  0  0  0  0
   -4.8846   -0.7842   -0.6782 H   0  0  0  0  0  0  0  0  0  0  0  0
   -4.2350    1.5085    2.1765 H   0  0  0  0  0  0  0  0  0  0  0  0
   -3.3117    0.8321   -0.5439 H   0  0  0  0  0  0  0  0  0  0  0  0
   -1.3247    0.1750   -1.0576 H   0  0  0  0  0  0  0  0  0  0  0  0
   -2.3346    3.1047   -0.5067 H   0  0  0  0  0  0  0  0  0  0  0  0
   -4.0768    3.1089   -0.1693 H   0  0  0  0  0  0  0  0  0  0  0  0
   -1.6041    4.9400    0.5923 H   0  0  0  0  0  0  0  0  0  0  0  0
   -1.9305    5.2159    2.2763 H   0  0  0  0  0  0  0  0  0  0  0  0
    1.2192    1.7088    0.8512 H   0  0  0  0  0  0  0  0  0  0  0  0
    0.5482    1.9449   -1.3447 H   0  0  0  0  0  0  0  0  0  0  0  0
    3.5293    1.3818    0.5989 H   0  0  0  0  0  0  0  0  0  0  0  0
    2.9593   -0.2397    1.0716 H   0  0  0  0  0  0  0  0  0  0  0  0
    3.2994    0.5662   -1.7853 H   0  0  0  0  0  0  0  0  0  0  0  0
    5.7099    0.1589    1.6830 H   0  0  0  0  0  0  0  0  0  0  0  0
    7.2126    1.9689    2.4874 H   0  0  0  0  0  0  0  0  0  0  0  0
    8.4199    3.3974    0.8511 H   0  0  0  0  0  0  0  0  0  0  0  0
    8.1321    3.0061   -1.5880 H   0  0  0  0  0  0  0  0  0  0  0  0
    6.6355    1.1905   -2.3852 H   0  0  0  0  0  0  0  0  0  0  0  0
  1 37  1  1  0  0  0
  2 38  1  0  0  0  0
  2  1  1  0  0  0  0
  3  2  1  0  0  0  0
  3  8  2  0  0  0  0
  4  5  2  0  0  0  0
  4  3  1  0  0  0  0
  5  6  1  0  0  0  0
  6  9  1  0  0  0  0
  6  7  2  0  0  0  0
  7 42  1  0  0  0  0
  8  7  1  0  0  0  0
  8 43  1  0  0  0  0
 10 45  1  0  0  0  0
 10  9  1  0  0  0  0
 10 11  1  0  0  0  0
 11 46  1  0  0  0  0
 11 47  1  0  0  0  0
 12 11  1  0  0  0  0
 12 13  1  0  0  0  0
 13 14  2  0  0  0  0
 15 13  1  0  0  0  0
 15 50  1  0  0  0  0
 16 51  1  6  0  0  0
 16 17  1  0  0  0  0
 16 15  1  0  0  0  0
 17 18  2  0  0  0  0
 19  1  1  0  0  0  0
 19 17  1  0  0  0  0
 20 16  1  0  0  0  0
 20 21  1  0  0  0  0
 21 22  2  0  0  0  0
 23 21  1  0  0  0  0
 23 56  1  0  0  0  0
 24  1  1  0  0  0  0
 24 26  1  0  0  0  0
 24 57  1  1  0  0  0
 25 24  1  0  0  0  0
 26 59  1  0  0  0  0
 26 60  1  0  0  0  0
 27 26  1  0  0  0  0
 28 27  1  0  0  0  0
 28 31  1  0  0  0  0
 28 29  2  0  0  0  0
 30 28  2  0  0  0  0
 31 32  2  0  0  0  0
 32 33  1  0  0  0  0
 32 62  1  0  0  0  0
 33 63  1  0  0  0  0
 34 64  1  0  0  0  0
 34 33  2  0  0  0  0
 35 34  1  0  0  0  0
 36 35  2  0  0  0  0
 36 31  1  0  0  0  0
 39  2  1  0  0  0  0
 40  4  1  0  0  0  0
 41  5  1  0  0  0  0
 44 10  1  0  0  0  0
 48 12  1  0  0  0  0
 49 12  1  0  0  0  0
 52 19  1  0  0  0  0
 53 20  1  0  0  0  0
 54 20  1  0  0  0  0
 55 23  1  0  0  0  0
 58 25  1  0  0  0  0
 61 27  1  0  0  0  0
 65 35  1  0  0  0  0
 66 36  1  0  0  0  0
M  END
