51.8235
 OpenBabel10231816213D

 40 42  0  0  0  0  0  0  0  0999 V2000
    4.4185    3.7711    1.4017 O   0  0  0  0  0  0  0  0  0  0  0  0
    4.5054    2.5832    1.7022 C   0  0  0  0  0  0  0  0  0  0  0  0
    5.6176    2.0805    2.5867 C   0  0  0  0  0  0  0  0  0  0  0  0
    3.5004    1.6082    1.1837 C   0  0  0  0  0  0  0  0  0  0  0  0
    2.4683    2.0783    0.3647 C   0  0  0  0  0  0  0  0  0  0  0  0
    1.5111    1.1949   -0.1470 C   0  0  0  0  0  0  0  0  0  0  0  0
    1.5622   -0.1698    0.1614 C   0  0  0  0  0  0  0  0  0  0  0  0
    2.5903   -0.6341    0.9830 C   0  0  0  0  0  0  0  0  0  0  0  0
    3.5577    0.2458    1.4880 C   0  0  0  0  0  0  0  0  0  0  0  0
    0.5416   -0.9880   -0.3631 N   0  0  0  0  0  0  0  0  0  0  0  0
    0.2925   -2.3161   -0.0743 C   0  0  0  0  0  0  0  0  0  0  0  0
    1.0321   -3.0518    0.5703 O   0  0  0  0  0  0  0  0  0  0  0  0
   -0.9485   -2.8427   -0.6337 C   0  0  0  0  0  0  0  0  0  0  0  0
   -1.1676   -4.2169   -0.9106 C   0  0  0  0  0  0  0  0  0  0  0  0
   -2.3547   -4.4548   -1.4639 N   0  0  0  0  0  0  0  0  0  0  0  0
   -2.9116   -3.2390   -1.5248 N   0  0  0  0  0  0  0  0  0  0  0  0
   -2.1554   -2.2267   -0.9736 C   0  0  0  0  0  0  0  0  0  0  0  0
   -2.7016   -0.8654   -0.8404 C   0  0  0  0  0  0  0  0  0  0  0  0
   -2.3265   -0.0580    0.2437 C   0  0  0  0  0  0  0  0  0  0  0  0
   -2.7832    1.2582    0.3523 C   0  0  0  0  0  0  0  0  0  0  0  0
   -2.2157    2.2182    1.6685 Cl  0  0  0  0  0  0  0  0  0  0  0  0
   -3.6652    1.7737   -0.5992 C   0  0  0  0  0  0  0  0  0  0  0  0
   -4.1022    3.0643   -0.4909 O   0  0  0  0  0  0  0  0  0  0  0  0
   -4.1043    0.9744   -1.6525 C   0  0  0  0  0  0  0  0  0  0  0  0
   -3.6252   -0.3349   -1.7642 C   0  0  0  0  0  0  0  0  0  0  0  0
   -4.0748   -1.1227   -2.7939 O   0  0  0  0  0  0  0  0  0  0  0  0
    6.2531    2.9219    2.8787 H   0  0  0  0  0  0  0  0  0  0  0  0
    6.2358    1.3611    2.0435 H   0  0  0  0  0  0  0  0  0  0  0  0
    5.2074    1.6344    3.4962 H   0  0  0  0  0  0  0  0  0  0  0  0
    2.3986    3.1384    0.1245 H   0  0  0  0  0  0  0  0  0  0  0  0
    0.7165    1.6005   -0.7686 H   0  0  0  0  0  0  0  0  0  0  0  0
    2.6801   -1.6828    1.2504 H   0  0  0  0  0  0  0  0  0  0  0  0
    4.3392   -0.1680    2.1184 H   0  0  0  0  0  0  0  0  0  0  0  0
   -0.1071   -0.5390   -0.9944 H   0  0  0  0  0  0  0  0  0  0  0  0
   -0.4880   -5.0438   -0.7395 H   0  0  0  0  0  0  0  0  0  0  0  0
   -3.8291   -3.1430   -1.9493 H   0  0  0  0  0  0  0  0  0  0  0  0
   -1.6702   -0.4451    1.0206 H   0  0  0  0  0  0  0  0  0  0  0  0
   -4.7152    3.2767   -1.2129 H   0  0  0  0  0  0  0  0  0  0  0  0
   -4.8093    1.3666   -2.3777 H   0  0  0  0  0  0  0  0  0  0  0  0
   -4.6728   -0.6078   -3.3637 H   0  0  0  0  0  0  0  0  0  0  0  0
  1  2  2  0  0  0  0
  2  3  1  0  0  0  0
  3 27  1  0  0  0  0
  3 29  1  0  0  0  0
  4  9  1  0  0  0  0
  4  2  1  0  0  0  0
  5  4  2  0  0  0  0
  6  7  2  0  0  0  0
  6  5  1  0  0  0  0
  7  8  1  0  0  0  0
  8 32  1  0  0  0  0
  8  9  2  0  0  0  0
  9 33  1  0  0  0  0
 10 11  1  0  0  0  0
 10  7  1  0  0  0  0
 11 12  2  0  0  0  0
 13 11  1  0  0  0  0
 14 35  1  0  0  0  0
 14 13  1  0  0  0  0
 15 14  2  0  0  0  0
 16 15  1  0  0  0  0
 16 17  1  0  0  0  0
 17 18  1  0  0  0  0
 17 13  2  0  0  0  0
 18 19  2  0  0  0  0
 19 20  1  0  0  0  0
 19 37  1  0  0  0  0
 20 21  1  0  0  0  0
 22 23  1  0  0  0  0
 22 20  2  0  0  0  0
 24 22  1  0  0  0  0
 25 24  2  0  0  0  0
 25 18  1  0  0  0  0
 26 25  1  0  0  0  0
 28  3  1  0  0  0  0
 30  5  1  0  0  0  0
 31  6  1  0  0  0  0
 34 10  1  0  0  0  0
 36 16  1  0  0  0  0
 38 23  1  0  0  0  0
 39 24  1  0  0  0  0
 40 26  1  0  0  0  0
M  END
