-35.2689
 OpenBabel10231816213D

 41 42  0  0  0  0  0  0  0  0999 V2000
   -6.3446   -0.7806    1.2736 C   0  0  0  0  0  0  0  0  0  0  0  0
   -5.7418    0.2850    0.4789 N   0  0  0  0  0  0  0  0  0  0  0  0
   -6.6186    1.0005   -0.4407 C   0  0  0  0  0  0  0  0  0  0  0  0
   -4.3601    0.3210    0.2998 C   0  0  0  0  0  0  0  0  0  0  0  0
   -3.7395    1.2013   -0.6015 C   0  0  0  0  0  0  0  0  0  0  0  0
   -2.3436    1.2574   -0.7556 C   0  0  0  0  0  0  0  0  0  0  0  0
   -1.5128    0.4305   -0.0023 C   0  0  0  0  0  0  0  0  0  0  0  0
   -2.1008   -0.4516    0.8947 C   0  0  0  0  0  0  0  0  0  0  0  0
   -3.4950   -0.4997    1.0407 C   0  0  0  0  0  0  0  0  0  0  0  0
   -0.1237    0.5464   -0.1903 N   0  0  0  0  0  0  0  0  0  0  0  0
    0.8672   -0.1521    0.4431 C   0  0  0  0  0  0  0  0  0  0  0  0
    0.7308   -1.0294    1.2939 O   0  0  0  0  0  0  0  0  0  0  0  0
    2.1531    0.1837    0.0876 N   0  0  0  0  0  0  0  0  0  0  0  0
    2.5987    1.1135   -0.8323 C   0  0  0  0  0  0  0  0  0  0  0  0
    1.8327    1.8034   -1.5077 O   0  0  0  0  0  0  0  0  0  0  0  0
    4.1044    1.3200   -0.8924 C   0  0  0  0  0  0  0  0  0  0  0  0
    4.9499    0.1250   -0.5191 C   0  0  0  0  0  0  0  0  0  0  0  0
    5.3659   -0.0678    0.8076 C   0  0  0  0  0  0  0  0  0  0  0  0
    6.1117   -1.1936    1.1575 C   0  0  0  0  0  0  0  0  0  0  0  0
    6.4607   -2.1287    0.1855 C   0  0  0  0  0  0  0  0  0  0  0  0
    6.0568   -1.9444   -1.1355 C   0  0  0  0  0  0  0  0  0  0  0  0
    5.2980   -0.8269   -1.4868 C   0  0  0  0  0  0  0  0  0  0  0  0
   -6.1163   -1.7656    0.8513 H   0  0  0  0  0  0  0  0  0  0  0  0
   -5.9954   -0.7384    2.3114 H   0  0  0  0  0  0  0  0  0  0  0  0
   -7.4351   -0.6871    1.3160 H   0  0  0  0  0  0  0  0  0  0  0  0
   -7.6735    0.8689   -0.1765 H   0  0  0  0  0  0  0  0  0  0  0  0
   -6.4902    0.6418   -1.4677 H   0  0  0  0  0  0  0  0  0  0  0  0
   -6.4265    2.0783   -0.4024 H   0  0  0  0  0  0  0  0  0  0  0  0
   -4.3273    1.8791   -1.2133 H   0  0  0  0  0  0  0  0  0  0  0  0
   -1.9264    1.9640   -1.4680 H   0  0  0  0  0  0  0  0  0  0  0  0
   -1.5117   -1.1214    1.5119 H   0  0  0  0  0  0  0  0  0  0  0  0
   -3.8789   -1.2085    1.7674 H   0  0  0  0  0  0  0  0  0  0  0  0
    0.1953    1.2303   -0.8738 H   0  0  0  0  0  0  0  0  0  0  0  0
    2.8264   -0.3794    0.5872 H   0  0  0  0  0  0  0  0  0  0  0  0
    4.3598    1.6273   -1.9142 H   0  0  0  0  0  0  0  0  0  0  0  0
    4.3501    2.1665   -0.2394 H   0  0  0  0  0  0  0  0  0  0  0  0
    5.1055    0.6520    1.5817 H   0  0  0  0  0  0  0  0  0  0  0  0
    6.4234   -1.3418    2.1887 H   0  0  0  0  0  0  0  0  0  0  0  0
    7.0497   -3.0013    0.4572 H   0  0  0  0  0  0  0  0  0  0  0  0
    6.3339   -2.6734   -1.8933 H   0  0  0  0  0  0  0  0  0  0  0  0
    4.9881   -0.7040   -2.5229 H   0  0  0  0  0  0  0  0  0  0  0  0
  1 25  1  0  0  0  0
  1 24  1  0  0  0  0
  2  1  1  0  0  0  0
  3 28  1  0  0  0  0
  3 26  1  0  0  0  0
  3  2  1  0  0  0  0
  4  2  1  0  0  0  0
  4  9  2  0  0  0  0
  5  4  1  0  0  0  0
  6  5  2  0  0  0  0
  6  7  1  0  0  0  0
  7  8  2  0  0  0  0
  8  9  1  0  0  0  0
  8 31  1  0  0  0  0
  9 32  1  0  0  0  0
 10  7  1  0  0  0  0
 10 11  1  0  0  0  0
 11 12  2  0  0  0  0
 13 11  1  0  0  0  0
 13 34  1  0  0  0  0
 14 13  1  0  0  0  0
 15 14  2  0  0  0  0
 16 14  1  0  0  0  0
 16 17  1  0  0  0  0
 16 36  1  0  0  0  0
 17 18  2  0  0  0  0
 18 19  1  0  0  0  0
 18 37  1  0  0  0  0
 19 38  1  0  0  0  0
 20 39  1  0  0  0  0
 20 19  2  0  0  0  0
 21 20  1  0  0  0  0
 22 21  2  0  0  0  0
 22 17  1  0  0  0  0
 23  1  1  0  0  0  0
 27  3  1  0  0  0  0
 29  5  1  0  0  0  0
 30  6  1  0  0  0  0
 33 10  1  0  0  0  0
 35 16  1  0  0  0  0
 40 21  1  0  0  0  0
 41 22  1  0  0  0  0
M  END
