105.629
 OpenBabel10231816213D

 46 48  0  0  1  0  0  0  0  0999 V2000
    2.0225   -2.7087   -0.0686 O   0  0  0  0  0  0  0  0  0  0  0  0
    2.0767   -1.4787   -0.0699 C   0  0  0  0  0  0  0  0  0  0  0  0
    1.2437   -0.6971   -0.8482 N   0  0  0  0  0  0  0  0  0  0  0  0
    0.5220   -1.3540   -1.9565 C   0  0  1  0  0  0  0  0  0  0  0  0
   -0.6601   -0.4905   -2.4255 C   0  0  0  0  0  0  0  0  0  0  0  0
   -1.4042    0.0341   -1.2704 N   0  0  0  0  0  0  0  0  0  0  0  0
   -0.6489    0.8438   -0.3108 C   0  0  1  0  0  0  0  0  0  0  0  0
    0.8648    0.6889   -0.5397 C   0  0  0  0  0  0  0  0  0  0  0  0
   -1.0535    2.3179   -0.4127 C   0  0  0  0  0  0  0  0  0  0  0  0
   -2.7726   -0.1427   -1.2338 C   0  0  0  0  0  0  0  0  0  0  0  0
   -3.4260   -0.4627   -2.2313 O   0  0  0  0  0  0  0  0  0  0  0  0
   -3.4919    0.0819    0.0447 C   0  0  0  0  0  0  0  0  0  0  0  0
   -3.1055   -0.5840    1.2133 C   0  0  0  0  0  0  0  0  0  0  0  0
   -3.7915   -0.3419    2.4058 C   0  0  0  0  0  0  0  0  0  0  0  0
   -4.8679    0.5489    2.4223 C   0  0  0  0  0  0  0  0  0  0  0  0
   -5.2617    1.1918    1.2526 C   0  0  0  0  0  0  0  0  0  0  0  0
   -4.5790    0.9546    0.0572 C   0  0  0  0  0  0  0  0  0  0  0  0
    1.4916   -1.6345   -3.1098 C   0  0  0  0  0  0  0  0  0  0  0  0
    3.1189   -0.8090    0.7517 C   0  0  0  0  0  0  0  0  0  0  0  0
    3.8092    0.3225    0.2956 C   0  0  0  0  0  0  0  0  0  0  0  0
    4.7831    0.9160    1.0982 C   0  0  0  0  0  0  0  0  0  0  0  0
    5.0875    0.3675    2.3436 C   0  0  0  0  0  0  0  0  0  0  0  0
    4.4260   -0.7821    2.7817 C   0  0  0  0  0  0  0  0  0  0  0  0
    3.4507   -1.3752    1.9814 C   0  0  0  0  0  0  0  0  0  0  0  0
    0.1343   -2.3158   -1.5927 H   0  0  0  0  0  0  0  0  0  0  0  0
   -0.2995    0.3663   -3.0082 H   0  0  0  0  0  0  0  0  0  0  0  0
   -1.3215   -1.0768   -3.0681 H   0  0  0  0  0  0  0  0  0  0  0  0
   -0.8706    0.4969    0.7016 H   0  0  0  0  0  0  0  0  0  0  0  0
    1.1782    1.2998   -1.3941 H   0  0  0  0  0  0  0  0  0  0  0  0
    1.3763    1.0468    0.3531 H   0  0  0  0  0  0  0  0  0  0  0  0
   -0.4810    2.9234    0.2956 H   0  0  0  0  0  0  0  0  0  0  0  0
   -0.8805    2.7081   -1.4214 H   0  0  0  0  0  0  0  0  0  0  0  0
   -2.1138    2.4677   -0.1875 H   0  0  0  0  0  0  0  0  0  0  0  0
   -2.2733   -1.2805    1.1991 H   0  0  0  0  0  0  0  0  0  0  0  0
   -3.4900   -0.8548    3.3162 H   0  0  0  0  0  0  0  0  0  0  0  0
   -5.4016    0.7308    3.3555 H   0  0  0  0  0  0  0  0  0  0  0  0
   -6.1085    1.8776    1.2655 H   0  0  0  0  0  0  0  0  0  0  0  0
   -4.8829    1.4472   -0.8603 H   0  0  0  0  0  0  0  0  0  0  0  0
    0.9752   -2.1060   -3.9513 H   0  0  0  0  0  0  0  0  0  0  0  0
    2.2995   -2.3060   -2.7957 H   0  0  0  0  0  0  0  0  0  0  0  0
    1.9601   -0.7099   -3.4664 H   0  0  0  0  0  0  0  0  0  0  0  0
    3.5915    0.7496   -0.6792 H   0  0  0  0  0  0  0  0  0  0  0  0
    5.3086    1.8018    0.7493 H   0  0  0  0  0  0  0  0  0  0  0  0
    5.8481    0.8286    2.9691 H   0  0  0  0  0  0  0  0  0  0  0  0
    4.6726   -1.2202    3.7453 H   0  0  0  0  0  0  0  0  0  0  0  0
    2.9450   -2.2816    2.3037 H   0  0  0  0  0  0  0  0  0  0  0  0
  2  1  2  0  0  0  0
  2 19  1  0  0  0  0
  3  8  1  0  0  0  0
  3  2  1  0  0  0  0
  4 25  1  1  0  0  0
  4  3  1  0  0  0  0
  5  4  1  0  0  0  0
  5  6  1  0  0  0  0
  6 10  1  0  0  0  0
  6  7  1  0  0  0  0
  7 28  1  1  0  0  0
  8  7  1  0  0  0  0
  8 30  1  0  0  0  0
  9  7  1  0  0  0  0
  9 33  1  0  0  0  0
  9 31  1  0  0  0  0
 10 12  1  0  0  0  0
 11 10  2  0  0  0  0
 12 17  2  0  0  0  0
 12 13  1  0  0  0  0
 13 14  2  0  0  0  0
 14 15  1  0  0  0  0
 14 35  1  0  0  0  0
 15 36  1  0  0  0  0
 16 37  1  0  0  0  0
 16 15  2  0  0  0  0
 17 16  1  0  0  0  0
 18 40  1  0  0  0  0
 18  4  1  0  0  0  0
 19 24  1  0  0  0  0
 20 19  2  0  0  0  0
 20 21  1  0  0  0  0
 21 22  2  0  0  0  0
 22 23  1  0  0  0  0
 22 44  1  0  0  0  0
 23 45  1  0  0  0  0
 24 46  1  0  0  0  0
 24 23  2  0  0  0  0
 26  5  1  0  0  0  0
 27  5  1  0  0  0  0
 29  8  1  0  0  0  0
 32  9  1  0  0  0  0
 34 13  1  0  0  0  0
 38 17  1  0  0  0  0
 39 18  1  0  0  0  0
 41 18  1  0  0  0  0
 42 20  1  0  0  0  0
 43 21  1  0  0  0  0
M  END
