-37.8771
 OpenBabel10231816213D

 24 23  0  0  1  0  0  0  0  0999 V2000
   -0.3480   -0.9634   -0.2600 C   0  0  2  0  0  0  0  0  0  0  0  0
   -1.4338   -1.7411    0.5030 C   0  0  0  0  0  0  0  0  0  0  0  0
   -2.6357   -1.7178    0.2767 O   0  0  0  0  0  0  0  0  0  0  0  0
   -0.9439   -2.6133    1.4063 O   0  0  0  0  0  0  0  0  0  0  0  0
    0.8178   -0.5017    0.6261 C   0  0  0  0  0  0  0  0  0  0  0  0
    1.9395    0.1452   -0.1858 C   0  0  0  0  0  0  0  0  0  0  0  0
    3.1080    0.5511    0.6689 C   0  0  0  0  0  0  0  0  0  0  0  0
    3.6927    1.6207    0.6224 O   0  0  0  0  0  0  0  0  0  0  0  0
    3.5570   -0.4359    1.4661 O   0  0  0  0  0  0  0  0  0  0  0  0
   -0.9801    0.1028   -1.0450 N   0  0  0  0  0  0  0  0  0  0  0  0
   -1.5981    1.1745   -0.4317 C   0  0  0  0  0  0  0  0  0  0  0  0
   -1.4970    1.4305    0.7598 O   0  0  0  0  0  0  0  0  0  0  0  0
   -2.4726    1.9784   -1.3548 C   0  0  0  0  0  0  0  0  0  0  0  0
    0.0451   -1.6680   -1.0048 H   0  0  0  0  0  0  0  0  0  0  0  0
   -1.7473   -3.0314    1.7821 H   0  0  0  0  0  0  0  0  0  0  0  0
    0.4819    0.1882    1.4080 H   0  0  0  0  0  0  0  0  0  0  0  0
    1.2214   -1.3693    1.1639 H   0  0  0  0  0  0  0  0  0  0  0  0
    2.3102   -0.5371   -0.9591 H   0  0  0  0  0  0  0  0  0  0  0  0
    1.5708    1.0476   -0.6856 H   0  0  0  0  0  0  0  0  0  0  0  0
    4.3270   -0.0376    1.9242 H   0  0  0  0  0  0  0  0  0  0  0  0
   -1.3389   -0.1641   -1.9524 H   0  0  0  0  0  0  0  0  0  0  0  0
   -3.5032    1.6209   -1.2669 H   0  0  0  0  0  0  0  0  0  0  0  0
   -2.1470    1.8890   -2.3937 H   0  0  0  0  0  0  0  0  0  0  0  0
   -2.4258    3.0319   -1.0675 H   0  0  0  0  0  0  0  0  0  0  0  0
  1 14  1  6  0  0  0
  1  2  1  0  0  0  0
  1  5  1  0  0  0  0
  2  4  1  0  0  0  0
  3  2  2  0  0  0  0
  4 15  1  0  0  0  0
  5 17  1  0  0  0  0
  5 16  1  0  0  0  0
  6  5  1  0  0  0  0
  6  7  1  0  0  0  0
  7  9  1  0  0  0  0
  8  7  2  0  0  0  0
  9 20  1  0  0  0  0
 10 11  1  0  0  0  0
 10  1  1  0  0  0  0
 11 12  2  0  0  0  0
 13 22  1  0  0  0  0
 13 24  1  0  0  0  0
 13 11  1  0  0  0  0
 18  6  1  0  0  0  0
 19  6  1  0  0  0  0
 21 10  1  0  0  0  0
 23 13  1  0  0  0  0
M  END
