124.199
 OpenBabel10231816213D

 34 35  0  0  1  0  0  0  0  0999 V2000
   -1.2158   -1.0642   -0.0704 C   0  0  1  0  0  0  0  0  0  0  0  0
    0.2331   -1.0089   -0.0292 N   0  0  0  0  0  0  0  0  0  0  0  0
    0.8319    0.2161    0.5158 C   0  0  0  0  0  0  0  0  0  0  0  0
    2.3131    0.3059    0.1846 C   0  0  0  0  0  0  0  0  0  0  0  0
    2.8369   -0.2729   -0.9782 C   0  0  0  0  0  0  0  0  0  0  0  0
    4.1862   -0.1544   -1.2955 C   0  0  0  0  0  0  0  0  0  0  0  0
    5.0377    0.5608   -0.4541 C   0  0  0  0  0  0  0  0  0  0  0  0
    4.5347    1.1494    0.7011 C   0  0  0  0  0  0  0  0  0  0  0  0
    3.1729    1.0291    1.0183 C   0  0  0  0  0  0  0  0  0  0  0  0
   -2.0440   -0.6912    1.1738 C   0  0  1  0  0  0  0  0  0  0  0  0
   -1.7550    0.5983    1.7246 O   0  0  0  0  0  0  0  0  0  0  0  0
   -3.4530   -0.6447    0.5677 C   0  0  1  0  0  0  0  0  0  0  0  0
   -4.3662    0.0526    1.4176 O   0  0  0  0  0  0  0  0  0  0  0  0
   -3.2282    0.1409   -0.7402 C   0  0  1  0  0  0  0  0  0  0  0  0
   -3.2330    1.5430   -0.4168 O   0  0  0  0  0  0  0  0  0  0  0  0
   -1.8072   -0.2080   -1.2069 C   0  0  2  0  0  0  0  0  0  0  0  0
   -1.7470   -1.0685   -2.8111 S   0  0  0  0  0  0  0  0  0  0  0  0
   -1.4602   -2.1189   -0.2745 H   0  0  0  0  0  0  0  0  0  0  0  0
    0.6261   -1.8082    0.4583 H   0  0  0  0  0  0  0  0  0  0  0  0
    0.7196    0.2367    1.6063 H   0  0  0  0  0  0  0  0  0  0  0  0
    0.3379    1.1006    0.1065 H   0  0  0  0  0  0  0  0  0  0  0  0
    2.1814   -0.8380   -1.6404 H   0  0  0  0  0  0  0  0  0  0  0  0
    4.5704   -0.6180   -2.2002 H   0  0  0  0  0  0  0  0  0  0  0  0
    6.0926    0.6572   -0.7029 H   0  0  0  0  0  0  0  0  0  0  0  0
    5.1933    1.7061    1.3630 H   0  0  0  0  0  0  0  0  0  0  0  0
    2.7959    1.4935    1.9205 H   0  0  0  0  0  0  0  0  0  0  0  0
   -1.9459   -1.4183    1.9853 H   0  0  0  0  0  0  0  0  0  0  0  0
   -2.0273    1.2736    1.0557 H   0  0  0  0  0  0  0  0  0  0  0  0
   -3.8417   -1.6438    0.3582 H   0  0  0  0  0  0  0  0  0  0  0  0
   -3.8262    0.4246    2.1471 H   0  0  0  0  0  0  0  0  0  0  0  0
   -4.0085   -0.0425   -1.4861 H   0  0  0  0  0  0  0  0  0  0  0  0
   -4.0510    1.6737    0.1212 H   0  0  0  0  0  0  0  0  0  0  0  0
   -1.2334    0.7177   -1.3373 H   0  0  0  0  0  0  0  0  0  0  0  0
   -0.4201   -1.2794   -2.7820 H   0  0  0  0  0  0  0  0  0  0  0  0
  1 18  1  6  0  0  0
  1  2  1  0  0  0  0
  1 10  1  0  0  0  0
  2 19  1  0  0  0  0
  2  3  1  0  0  0  0
  3 20  1  0  0  0  0
  4  3  1  0  0  0  0
  4  9  2  0  0  0  0
  5  4  1  0  0  0  0
  6  5  2  0  0  0  0
  6  7  1  0  0  0  0
  7  8  2  0  0  0  0
  8  9  1  0  0  0  0
  8 25  1  0  0  0  0
  9 26  1  0  0  0  0
 10 11  1  0  0  0  0
 10 27  1  1  0  0  0
 12 29  1  6  0  0  0
 12 10  1  0  0  0  0
 12 13  1  0  0  0  0
 13 30  1  0  0  0  0
 14 31  1  6  0  0  0
 14 15  1  0  0  0  0
 14 12  1  0  0  0  0
 15 32  1  0  0  0  0
 16 33  1  6  0  0  0
 16 14  1  0  0  0  0
 16  1  1  0  0  0  0
 17 34  1  0  0  0  0
 17 16  1  0  0  0  0
 21  3  1  0  0  0  0
 22  5  1  0  0  0  0
 23  6  1  0  0  0  0
 24  7  1  0  0  0  0
 28 11  1  0  0  0  0
M  END
