-57.0646
 OpenBabel10231816213D

 39 40  0  0  0  0  0  0  0  0999 V2000
    1.0031    0.1626    1.7342 S   0  0  0  0  0  0  0  0  0  0  0  0
    0.7297    1.5780    1.8270 O   0  0  0  0  0  0  0  0  0  0  0  0
    0.1404   -0.7911    2.4049 O   0  0  0  0  0  0  0  0  0  0  0  0
    2.5099   -0.1599    2.3540 N   0  0  0  0  0  0  0  0  0  0  0  0
    3.5837    0.7349    2.2902 C   0  0  0  0  0  0  0  0  0  0  0  0
    3.6184    1.6609    1.4948 O   0  0  0  0  0  0  0  0  0  0  0  0
    4.6867    0.4191    3.2655 C   0  0  0  0  0  0  0  0  0  0  0  0
    5.9325    1.2290    2.9744 C   0  0  0  0  0  0  0  0  0  0  0  0
    1.0351   -0.3038    0.0414 C   0  0  0  0  0  0  0  0  0  0  0  0
   -0.1645   -0.6293   -0.6015 C   0  0  0  0  0  0  0  0  0  0  0  0
   -1.4045   -0.4858    0.0521 N   0  0  0  0  0  0  0  0  0  0  0  0
   -2.6988   -0.3439   -0.4623 C   0  0  0  0  0  0  0  0  0  0  0  0
   -2.9444    0.2957   -1.6810 C   0  0  0  0  0  0  0  0  0  0  0  0
   -4.2193    0.3012   -2.2542 C   0  0  0  0  0  0  0  0  0  0  0  0
   -5.2722   -0.3148   -1.5666 C   0  0  0  0  0  0  0  0  0  0  0  0
   -5.0490   -0.9218   -0.3299 C   0  0  0  0  0  0  0  0  0  0  0  0
   -3.7667   -0.9364    0.2166 C   0  0  0  0  0  0  0  0  0  0  0  0
   -4.4429    0.9533   -3.5951 C   0  0  0  0  0  0  0  0  0  0  0  0
   -3.2918    1.3653   -4.1978 F   0  0  0  0  0  0  0  0  0  0  0  0
   -5.2394    2.0528   -3.5181 F   0  0  0  0  0  0  0  0  0  0  0  0
   -5.0413    0.1144   -4.4868 F   0  0  0  0  0  0  0  0  0  0  0  0
   -0.0844   -1.0354   -1.9403 C   0  0  0  0  0  0  0  0  0  0  0  0
    1.1503   -1.1209   -2.5585 C   0  0  0  0  0  0  0  0  0  0  0  0
    2.3101   -0.8284   -1.9414 N   0  0  0  0  0  0  0  0  0  0  0  0
    2.2261   -0.4162   -0.6531 C   0  0  0  0  0  0  0  0  0  0  0  0
    2.4931   -0.9128    3.0371 H   0  0  0  0  0  0  0  0  0  0  0  0
    4.3227    0.6305    4.2769 H   0  0  0  0  0  0  0  0  0  0  0  0
    4.9185   -0.6499    3.1968 H   0  0  0  0  0  0  0  0  0  0  0  0
    6.7251    0.9809    3.6864 H   0  0  0  0  0  0  0  0  0  0  0  0
    6.3011    1.0265    1.9625 H   0  0  0  0  0  0  0  0  0  0  0  0
    5.7293    2.3032    3.0455 H   0  0  0  0  0  0  0  0  0  0  0  0
   -1.3829   -0.6568    1.0602 H   0  0  0  0  0  0  0  0  0  0  0  0
   -2.1275    0.8020   -2.1934 H   0  0  0  0  0  0  0  0  0  0  0  0
   -6.2735   -0.3281   -1.9949 H   0  0  0  0  0  0  0  0  0  0  0  0
   -5.8670   -1.3999    0.2029 H   0  0  0  0  0  0  0  0  0  0  0  0
   -3.6005   -1.4371    1.1663 H   0  0  0  0  0  0  0  0  0  0  0  0
   -0.9696   -1.3164   -2.5031 H   0  0  0  0  0  0  0  0  0  0  0  0
    1.2350   -1.4396   -3.5945 H   0  0  0  0  0  0  0  0  0  0  0  0
    3.1894   -0.1824   -0.2171 H   0  0  0  0  0  0  0  0  0  0  0  0
  1  2  2  0  0  0  0
  1  4  1  0  0  0  0
  1  3  2  0  0  0  0
  4 26  1  0  0  0  0
  5  4  1  0  0  0  0
  5  7  1  0  0  0  0
  6  5  2  0  0  0  0
  7 27  1  0  0  0  0
  8 31  1  0  0  0  0
  8  7  1  0  0  0  0
  8 29  1  0  0  0  0
  9  1  1  0  0  0  0
 10  9  1  0  0  0  0
 10 11  1  0  0  0  0
 11 32  1  0  0  0  0
 12 11  1  0  0  0  0
 12 17  2  0  0  0  0
 13 12  1  0  0  0  0
 14 13  2  0  0  0  0
 14 15  1  0  0  0  0
 15 16  2  0  0  0  0
 16 35  1  0  0  0  0
 16 17  1  0  0  0  0
 17 36  1  0  0  0  0
 18 20  1  0  0  0  0
 18 14  1  0  0  0  0
 19 18  1  0  0  0  0
 21 18  1  0  0  0  0
 22 10  2  0  0  0  0
 23 24  2  0  0  0  0
 23 22  1  0  0  0  0
 24 25  1  0  0  0  0
 25 39  1  0  0  0  0
 25  9  2  0  0  0  0
 28  7  1  0  0  0  0
 30  8  1  0  0  0  0
 33 13  1  0  0  0  0
 34 15  1  0  0  0  0
 37 22  1  0  0  0  0
 38 23  1  0  0  0  0
M  END
