117.865
 OpenBabel10231816213D

 34 35  0  0  1  0  0  0  0  0999 V2000
   -1.2935   -0.2703   -0.4965 C   0  0  1  0  0  0  0  0  0  0  0  0
    0.0601    0.2352   -0.2303 N   0  0  0  0  0  0  0  0  0  0  0  0
    1.1166   -0.7410   -0.5191 C   0  0  0  0  0  0  0  0  0  0  0  0
    2.4928   -0.1495   -0.2945 C   0  0  0  0  0  0  0  0  0  0  0  0
    2.7237    0.8359    0.6802 C   0  0  0  0  0  0  0  0  0  0  0  0
    4.0029    1.3514    0.8864 C   0  0  0  0  0  0  0  0  0  0  0  0
    5.0764    0.8756    0.1378 C   0  0  0  0  0  0  0  0  0  0  0  0
    4.8683   -0.1152   -0.8189 C   0  0  0  0  0  0  0  0  0  0  0  0
    3.5858   -0.6269   -1.0341 C   0  0  0  0  0  0  0  0  0  0  0  0
   -1.7958   -1.2535    0.5910 C   0  0  1  0  0  0  0  0  0  0  0  0
   -1.1274   -1.0072    1.8416 O   0  0  0  0  0  0  0  0  0  0  0  0
   -3.2987   -0.9565    0.7746 C   0  0  1  0  0  0  0  0  0  0  0  0
   -3.5347   -0.3453    2.0585 O   0  0  0  0  0  0  0  0  0  0  0  0
   -3.6488    0.0717   -0.3116 C   0  0  1  0  0  0  0  0  0  0  0  0
   -4.7411    0.8861    0.0981 O   0  0  0  0  0  0  0  0  0  0  0  0
   -2.3426    0.8603   -0.4416 C   0  0  2  0  0  0  0  0  0  0  0  0
   -2.2551    1.9756   -1.8855 S   0  0  0  0  0  0  0  0  0  0  0  0
   -1.3460   -0.7599   -1.4807 H   0  0  0  0  0  0  0  0  0  0  0  0
    0.2240    1.0566   -0.8242 H   0  0  0  0  0  0  0  0  0  0  0  0
    1.0268   -1.6219    0.1263 H   0  0  0  0  0  0  0  0  0  0  0  0
    1.0317   -1.0706   -1.5611 H   0  0  0  0  0  0  0  0  0  0  0  0
    1.9032    1.2164    1.2875 H   0  0  0  0  0  0  0  0  0  0  0  0
    4.1611    2.1225    1.6374 H   0  0  0  0  0  0  0  0  0  0  0  0
    6.0739    1.2725    0.3053 H   0  0  0  0  0  0  0  0  0  0  0  0
    5.7081   -0.4925   -1.3974 H   0  0  0  0  0  0  0  0  0  0  0  0
    3.4503   -1.4079   -1.7792 H   0  0  0  0  0  0  0  0  0  0  0  0
   -1.6074   -2.2904    0.2950 H   0  0  0  0  0  0  0  0  0  0  0  0
   -0.3857   -0.4020    1.6157 H   0  0  0  0  0  0  0  0  0  0  0  0
   -3.9209   -1.8539    0.7085 H   0  0  0  0  0  0  0  0  0  0  0  0
   -2.6996   -0.4877    2.5612 H   0  0  0  0  0  0  0  0  0  0  0  0
   -3.9077   -0.4334   -1.2502 H   0  0  0  0  0  0  0  0  0  0  0  0
   -4.6849    0.9201    1.0755 H   0  0  0  0  0  0  0  0  0  0  0  0
   -2.1940    1.4898    0.4452 H   0  0  0  0  0  0  0  0  0  0  0  0
   -2.7219    1.1161   -2.8007 H   0  0  0  0  0  0  0  0  0  0  0  0
  1 18  1  6  0  0  0
  1 16  1  0  0  0  0
  1  2  1  0  0  0  0
  1 10  1  0  0  0  0
  3  4  1  0  0  0  0
  3  2  1  0  0  0  0
  3 20  1  0  0  0  0
  4  5  2  0  0  0  0
  5  6  1  0  0  0  0
  5 22  1  0  0  0  0
  6 23  1  0  0  0  0
  7 24  1  0  0  0  0
  7  6  2  0  0  0  0
  8  7  1  0  0  0  0
  9  8  2  0  0  0  0
  9  4  1  0  0  0  0
 10 27  1  6  0  0  0
 10 12  1  0  0  0  0
 10 11  1  0  0  0  0
 12 29  1  6  0  0  0
 12 13  1  0  0  0  0
 13 30  1  0  0  0  0
 14 31  1  6  0  0  0
 14 15  1  0  0  0  0
 14 12  1  0  0  0  0
 15 32  1  0  0  0  0
 16 14  1  0  0  0  0
 16 33  1  1  0  0  0
 17 16  1  0  0  0  0
 19  2  1  0  0  0  0
 21  3  1  0  0  0  0
 25  8  1  0  0  0  0
 26  9  1  0  0  0  0
 28 11  1  0  0  0  0
 34 17  1  0  0  0  0
M  END
