105.624
 OpenBabel10231816213D

 46 48  0  0  1  0  0  0  0  0999 V2000
    3.5285    2.1166    0.0175 O   0  0  0  0  0  0  0  0  0  0  0  0
    2.8315    1.0996   -0.0484 C   0  0  0  0  0  0  0  0  0  0  0  0
    1.4768    1.1456   -0.3077 N   0  0  0  0  0  0  0  0  0  0  0  0
    0.7015    0.0312   -0.8586 C   0  0  1  0  0  0  0  0  0  0  0  0
   -0.8014    0.3618   -0.8618 C   0  0  0  0  0  0  0  0  0  0  0  0
   -1.2208    1.0653    0.3584 N   0  0  0  0  0  0  0  0  0  0  0  0
   -0.4635    2.2807    0.7199 C   0  0  1  0  0  0  0  0  0  0  0  0
    0.7802    2.4339   -0.1705 C   0  0  0  0  0  0  0  0  0  0  0  0
   -1.3745    3.5083    0.6104 C   0  0  0  0  0  0  0  0  0  0  0  0
   -2.1303    0.5766    1.2773 C   0  0  0  0  0  0  0  0  0  0  0  0
   -2.1297    0.9209    2.4592 O   0  0  0  0  0  0  0  0  0  0  0  0
   -3.1895   -0.3536    0.8054 C   0  0  0  0  0  0  0  0  0  0  0  0
   -3.8029   -0.2061   -0.4464 C   0  0  0  0  0  0  0  0  0  0  0  0
   -4.7952   -1.1004   -0.8467 C   0  0  0  0  0  0  0  0  0  0  0  0
   -5.1949   -2.1254    0.0101 C   0  0  0  0  0  0  0  0  0  0  0  0
   -4.6103   -2.2492    1.2726 C   0  0  0  0  0  0  0  0  0  0  0  0
   -3.6164   -1.3575    1.6733 C   0  0  0  0  0  0  0  0  0  0  0  0
    1.1741   -0.3051   -2.2765 C   0  0  0  0  0  0  0  0  0  0  0  0
    3.4830   -0.2210    0.1357 C   0  0  0  0  0  0  0  0  0  0  0  0
    3.0007   -1.1350    1.0795 C   0  0  0  0  0  0  0  0  0  0  0  0
    3.6251   -2.3764    1.2210 C   0  0  0  0  0  0  0  0  0  0  0  0
    4.7352   -2.6925    0.4337 C   0  0  0  0  0  0  0  0  0  0  0  0
    5.2241   -1.7713   -0.4881 C   0  0  0  0  0  0  0  0  0  0  0  0
    4.6034   -0.5283   -0.6349 C   0  0  0  0  0  0  0  0  0  0  0  0
    0.8481   -0.8509   -0.2302 H   0  0  0  0  0  0  0  0  0  0  0  0
   -1.3489   -0.5719   -0.9851 H   0  0  0  0  0  0  0  0  0  0  0  0
   -1.0370    1.0224   -1.7041 H   0  0  0  0  0  0  0  0  0  0  0  0
   -0.1394    2.1862    1.7658 H   0  0  0  0  0  0  0  0  0  0  0  0
    0.4917    2.7666   -1.1754 H   0  0  0  0  0  0  0  0  0  0  0  0
    1.4524    3.1858    0.2500 H   0  0  0  0  0  0  0  0  0  0  0  0
   -0.8298    4.4249    0.8555 H   0  0  0  0  0  0  0  0  0  0  0  0
   -2.2268    3.4333    1.2961 H   0  0  0  0  0  0  0  0  0  0  0  0
   -1.7821    3.6091   -0.4022 H   0  0  0  0  0  0  0  0  0  0  0  0
   -3.5105    0.5978   -1.1161 H   0  0  0  0  0  0  0  0  0  0  0  0
   -5.2609   -0.9936   -1.8236 H   0  0  0  0  0  0  0  0  0  0  0  0
   -5.9701   -2.8219   -0.3005 H   0  0  0  0  0  0  0  0  0  0  0  0
   -4.9312   -3.0378    1.9481 H   0  0  0  0  0  0  0  0  0  0  0  0
   -3.1698   -1.4321    2.6611 H   0  0  0  0  0  0  0  0  0  0  0  0
    2.2245   -0.6110   -2.2958 H   0  0  0  0  0  0  0  0  0  0  0  0
    0.5869   -1.1289   -2.6921 H   0  0  0  0  0  0  0  0  0  0  0  0
    1.0785    0.5593   -2.9423 H   0  0  0  0  0  0  0  0  0  0  0  0
    2.1420   -0.8872    1.6951 H   0  0  0  0  0  0  0  0  0  0  0  0
    3.2494   -3.0900    1.9505 H   0  0  0  0  0  0  0  0  0  0  0  0
    5.2204   -3.6616    0.5512 H   0  0  0  0  0  0  0  0  0  0  0  0
    6.0966   -2.0152   -1.0933 H   0  0  0  0  0  0  0  0  0  0  0  0
    4.9810    0.1978   -1.3469 H   0  0  0  0  0  0  0  0  0  0  0  0
  2  1  2  0  0  0  0
  2 19  1  0  0  0  0
  3  8  1  0  0  0  0
  3  2  1  0  0  0  0
  4  3  1  0  0  0  0
  4 25  1  1  0  0  0
  5  4  1  0  0  0  0
  5  6  1  0  0  0  0
  6  7  1  0  0  0  0
  6 10  1  0  0  0  0
  7 28  1  1  0  0  0
  8 30  1  0  0  0  0
  8  7  1  0  0  0  0
  9  7  1  0  0  0  0
  9 31  1  0  0  0  0
  9 32  1  0  0  0  0
 10 11  2  0  0  0  0
 12 10  1  0  0  0  0
 12 17  2  0  0  0  0
 13 12  1  0  0  0  0
 14 13  2  0  0  0  0
 14 15  1  0  0  0  0
 15 16  2  0  0  0  0
 16 17  1  0  0  0  0
 16 37  1  0  0  0  0
 17 38  1  0  0  0  0
 18  4  1  0  0  0  0
 19 20  2  0  0  0  0
 20 21  1  0  0  0  0
 20 42  1  0  0  0  0
 21 43  1  0  0  0  0
 22 44  1  0  0  0  0
 22 21  2  0  0  0  0
 23 22  1  0  0  0  0
 24 23  2  0  0  0  0
 24 19  1  0  0  0  0
 26  5  1  0  0  0  0
 27  5  1  0  0  0  0
 29  8  1  0  0  0  0
 33  9  1  0  0  0  0
 34 13  1  0  0  0  0
 35 14  1  0  0  0  0
 36 15  1  0  0  0  0
 39 18  1  0  0  0  0
 40 18  1  0  0  0  0
 41 18  1  0  0  0  0
 45 23  1  0  0  0  0
 46 24  1  0  0  0  0
M  END
