-2.29046
 OpenBabel10231816213D

 45 47  0  0  0  0  0  0  0  0999 V2000
   -5.4649   -1.7621    0.4730 O   0  0  0  0  0  0  0  0  0  0  0  0
   -5.2323   -0.5825   -0.1975 N   0  0  0  0  0  0  0  0  0  0  0  0
   -3.9041   -0.4067   -0.1952 C   0  0  0  0  0  0  0  0  0  0  0  0
   -3.2431   -1.4650    0.5065 C   0  0  0  0  0  0  0  0  0  0  0  0
   -1.8379   -1.7281    0.7967 C   0  0  0  0  0  0  0  0  0  0  0  0
   -1.4950   -2.8152    1.2530 O   0  0  0  0  0  0  0  0  0  0  0  0
   -0.9611   -0.6924    0.5335 N   0  0  0  0  0  0  0  0  0  0  0  0
    0.4103   -0.7524    0.7004 C   0  0  0  0  0  0  0  0  0  0  0  0
    1.1632   -1.7863    1.1992 C   0  0  0  0  0  0  0  0  0  0  0  0
    2.4825   -1.4154    1.1797 N   0  0  0  0  0  0  0  0  0  0  0  0
    3.5609   -2.2641    1.6433 C   0  0  0  0  0  0  0  0  0  0  0  0
    2.6002   -0.1404    0.6660 C   0  0  0  0  0  0  0  0  0  0  0  0
    1.3097    0.2836    0.3682 C   0  0  0  0  0  0  0  0  0  0  0  0
    3.8490    0.5635    0.4921 C   0  0  0  0  0  0  0  0  0  0  0  0
    4.9540    0.1358    0.7857 O   0  0  0  0  0  0  0  0  0  0  0  0
    3.6117    1.7857   -0.0631 O   0  0  0  0  0  0  0  0  0  0  0  0
    4.7795    2.5793   -0.2976 C   0  0  0  0  0  0  0  0  0  0  0  0
    5.4335    2.1807   -1.6078 C   0  0  0  0  0  0  0  0  0  0  0  0
   -4.2870   -2.2939    0.8876 C   0  0  0  0  0  0  0  0  0  0  0  0
   -4.3949   -3.5718    1.6277 C   0  0  0  0  0  0  0  0  0  0  0  0
   -3.3297    0.7495   -0.8701 C   0  0  0  0  0  0  0  0  0  0  0  0
   -2.7498    0.6083   -2.1373 C   0  0  0  0  0  0  0  0  0  0  0  0
   -2.1454    1.7045   -2.7598 C   0  0  0  0  0  0  0  0  0  0  0  0
   -2.1165    2.9433   -2.1184 C   0  0  0  0  0  0  0  0  0  0  0  0
   -2.6899    3.0880   -0.8552 C   0  0  0  0  0  0  0  0  0  0  0  0
   -3.2978    1.9946   -0.2309 C   0  0  0  0  0  0  0  0  0  0  0  0
   -1.3040    0.1890    0.1839 H   0  0  0  0  0  0  0  0  0  0  0  0
    0.8734   -2.7584    1.5730 H   0  0  0  0  0  0  0  0  0  0  0  0
    4.1419   -2.5972    0.7795 H   0  0  0  0  0  0  0  0  0  0  0  0
    4.1829   -1.7030    2.3442 H   0  0  0  0  0  0  0  0  0  0  0  0
    3.1392   -3.1305    2.1603 H   0  0  0  0  0  0  0  0  0  0  0  0
    1.0551    1.2463   -0.0579 H   0  0  0  0  0  0  0  0  0  0  0  0
    5.4820    2.5016    0.5401 H   0  0  0  0  0  0  0  0  0  0  0  0
    4.4501    3.6217   -0.3467 H   0  0  0  0  0  0  0  0  0  0  0  0
    4.7209    2.2588   -2.4353 H   0  0  0  0  0  0  0  0  0  0  0  0
    6.2948    2.8198   -1.8183 H   0  0  0  0  0  0  0  0  0  0  0  0
    5.7733    1.1402   -1.5799 H   0  0  0  0  0  0  0  0  0  0  0  0
   -4.9468   -4.3154    1.0442 H   0  0  0  0  0  0  0  0  0  0  0  0
   -4.9199   -3.4238    2.5766 H   0  0  0  0  0  0  0  0  0  0  0  0
   -3.4187   -4.0022    1.8580 H   0  0  0  0  0  0  0  0  0  0  0  0
   -2.7654   -0.3536   -2.6455 H   0  0  0  0  0  0  0  0  0  0  0  0
   -1.6992    1.5934   -3.7453 H   0  0  0  0  0  0  0  0  0  0  0  0
   -1.6526    3.7974   -2.6082 H   0  0  0  0  0  0  0  0  0  0  0  0
   -2.6697    4.0558   -0.3569 H   0  0  0  0  0  0  0  0  0  0  0  0
   -3.7425    2.1194    0.7547 H   0  0  0  0  0  0  0  0  0  0  0  0
  1 19  1  0  0  0  0
  2  3  2  0  0  0  0
  2  1  1  0  0  0  0
  3  4  1  0  0  0  0
  4  5  1  0  0  0  0
  4 19  2  0  0  0  0
  5  6  2  0  0  0  0
  7  8  1  0  0  0  0
  7  5  1  0  0  0  0
  8  9  2  0  0  0  0
  9 28  1  0  0  0  0
 10  9  1  0  0  0  0
 10 11  1  0  0  0  0
 11 31  1  0  0  0  0
 11 30  1  0  0  0  0
 12 10  1  0  0  0  0
 13 12  2  0  0  0  0
 13  8  1  0  0  0  0
 14 12  1  0  0  0  0
 14 15  2  0  0  0  0
 16 14  1  0  0  0  0
 17 16  1  0  0  0  0
 17 33  1  0  0  0  0
 18 37  1  0  0  0  0
 18 17  1  0  0  0  0
 19 20  1  0  0  0  0
 20 40  1  0  0  0  0
 20 39  1  0  0  0  0
 21 26  2  0  0  0  0
 21  3  1  0  0  0  0
 22 21  1  0  0  0  0
 23 22  2  0  0  0  0
 23 24  1  0  0  0  0
 24 25  2  0  0  0  0
 25 44  1  0  0  0  0
 25 26  1  0  0  0  0
 26 45  1  0  0  0  0
 27  7  1  0  0  0  0
 29 11  1  0  0  0  0
 32 13  1  0  0  0  0
 34 17  1  0  0  0  0
 35 18  1  0  0  0  0
 36 18  1  0  0  0  0
 38 20  1  0  0  0  0
 41 22  1  0  0  0  0
 42 23  1  0  0  0  0
 43 24  1  0  0  0  0
M  END
