4.47477
 OpenBabel10231816213D

 45 47  0  0  0  0  0  0  0  0999 V2000
   -4.3098   -1.6898    1.4270 O   0  0  0  0  0  0  0  0  0  0  0  0
   -4.8853   -1.2482    0.2752 N   0  0  0  0  0  0  0  0  0  0  0  0
   -4.0298   -0.3838   -0.3076 C   0  0  0  0  0  0  0  0  0  0  0  0
   -2.8118   -0.3266    0.4752 C   0  0  0  0  0  0  0  0  0  0  0  0
   -1.5570    0.3893    0.2705 C   0  0  0  0  0  0  0  0  0  0  0  0
   -1.5175    1.4939   -0.2555 O   0  0  0  0  0  0  0  0  0  0  0  0
   -0.4328   -0.2845    0.7263 N   0  0  0  0  0  0  0  0  0  0  0  0
    0.8645    0.1924    0.6454 C   0  0  0  0  0  0  0  0  0  0  0  0
    1.2946    1.3921    0.1343 C   0  0  0  0  0  0  0  0  0  0  0  0
    2.6588    1.4487    0.2371 N   0  0  0  0  0  0  0  0  0  0  0  0
    3.4508    2.5846   -0.2123 C   0  0  0  0  0  0  0  0  0  0  0  0
    3.1300    0.2949    0.8196 C   0  0  0  0  0  0  0  0  0  0  0  0
    2.0188   -0.4959    1.0820 C   0  0  0  0  0  0  0  0  0  0  0  0
    4.5229    0.0162    1.0807 C   0  0  0  0  0  0  0  0  0  0  0  0
    5.4574    0.7668    0.8327 O   0  0  0  0  0  0  0  0  0  0  0  0
    4.6477   -1.2184    1.6376 O   0  0  0  0  0  0  0  0  0  0  0  0
    5.9929   -1.6119    1.9324 C   0  0  0  0  0  0  0  0  0  0  0  0
    6.6636   -2.1730    0.6916 C   0  0  0  0  0  0  0  0  0  0  0  0
   -3.0919   -1.1277    1.5728 C   0  0  0  0  0  0  0  0  0  0  0  0
   -2.3925   -1.4874    2.8241 C   0  0  0  0  0  0  0  0  0  0  0  0
   -4.4640    0.2486   -1.5738 C   0  0  0  0  0  0  0  0  0  0  0  0
   -3.8415    1.3628   -2.1407 C   0  0  0  0  0  0  0  0  0  0  0  0
   -4.2930    1.9280   -3.3400 C   0  0  0  0  0  0  0  0  0  0  0  0
   -5.3932    1.3906   -3.9974 C   0  0  0  0  0  0  0  0  0  0  0  0
   -6.0481    0.2947   -3.4505 C   0  0  0  0  0  0  0  0  0  0  0  0
   -5.5906   -0.2635   -2.2518 C   0  0  0  0  0  0  0  0  0  0  0  0
   -0.5342   -1.2152    1.1027 H   0  0  0  0  0  0  0  0  0  0  0  0
    0.7447    2.2159   -0.2998 H   0  0  0  0  0  0  0  0  0  0  0  0
    4.0128    2.2961   -1.1037 H   0  0  0  0  0  0  0  0  0  0  0  0
    4.1226    2.8956    0.5904 H   0  0  0  0  0  0  0  0  0  0  0  0
    2.7795    3.4136   -0.4533 H   0  0  0  0  0  0  0  0  0  0  0  0
    2.0549   -1.4756    1.5406 H   0  0  0  0  0  0  0  0  0  0  0  0
    6.5652   -0.7768    2.3512 H   0  0  0  0  0  0  0  0  0  0  0  0
    5.9314   -2.3833    2.7063 H   0  0  0  0  0  0  0  0  0  0  0  0
    7.6715   -2.5252    0.9240 H   0  0  0  0  0  0  0  0  0  0  0  0
    6.0824   -3.0038    0.2790 H   0  0  0  0  0  0  0  0  0  0  0  0
    6.7360   -1.4147   -0.0954 H   0  0  0  0  0  0  0  0  0  0  0  0
   -1.7974   -2.3947    2.6812 H   0  0  0  0  0  0  0  0  0  0  0  0
   -1.7259   -0.6845    3.1520 H   0  0  0  0  0  0  0  0  0  0  0  0
   -3.1067   -1.6738    3.6322 H   0  0  0  0  0  0  0  0  0  0  0  0
   -3.0033    1.8510   -1.6709 H   0  0  0  0  0  0  0  0  0  0  0  0
   -3.7803    2.7946   -3.7495 H   0  0  0  0  0  0  0  0  0  0  0  0
   -5.7416    1.8305   -4.9272 H   0  0  0  0  0  0  0  0  0  0  0  0
   -6.9159   -0.1298   -3.9483 H   0  0  0  0  0  0  0  0  0  0  0  0
   -6.1391   -1.1127   -1.8462 H   0  0  0  0  0  0  0  0  0  0  0  0
  1 19  1  0  0  0  0
  2  1  1  0  0  0  0
  3  2  2  0  0  0  0
  3  4  1  0  0  0  0
  4 19  2  0  0  0  0
  5  4  1  0  0  0  0
  5  7  1  0  0  0  0
  6  5  2  0  0  0  0
  7 27  1  0  0  0  0
  8  7  1  0  0  0  0
  8 13  1  0  0  0  0
  9 10  1  0  0  0  0
  9  8  2  0  0  0  0
 10 12  1  0  0  0  0
 11 10  1  0  0  0  0
 11 30  1  0  0  0  0
 12 14  1  0  0  0  0
 12 13  2  0  0  0  0
 13 32  1  0  0  0  0
 14 16  1  0  0  0  0
 15 14  2  0  0  0  0
 16 17  1  0  0  0  0
 17 33  1  0  0  0  0
 17 34  1  0  0  0  0
 18 35  1  0  0  0  0
 18 17  1  0  0  0  0
 19 20  1  0  0  0  0
 20 39  1  0  0  0  0
 20 40  1  0  0  0  0
 21  3  1  0  0  0  0
 22 41  1  0  0  0  0
 22 21  1  0  0  0  0
 23 22  2  0  0  0  0
 24 25  2  0  0  0  0
 24 23  1  0  0  0  0
 25 26  1  0  0  0  0
 26 45  1  0  0  0  0
 26 21  2  0  0  0  0
 28  9  1  0  0  0  0
 29 11  1  0  0  0  0
 31 11  1  0  0  0  0
 36 18  1  0  0  0  0
 37 18  1  0  0  0  0
 38 20  1  0  0  0  0
 42 23  1  0  0  0  0
 43 24  1  0  0  0  0
 44 25  1  0  0  0  0
M  END
