106.633
 OpenBabel10231816213D

 46 48  0  0  1  0  0  0  0  0999 V2000
    2.2996   -1.3392    2.3533 O   0  0  0  0  0  0  0  0  0  0  0  0
    2.3303   -0.7982    1.2472 C   0  0  0  0  0  0  0  0  0  0  0  0
    1.1708   -0.4561    0.5442 N   0  0  0  0  0  0  0  0  0  0  0  0
    0.8698   -1.0415   -0.7926 C   0  0  1  0  0  0  0  0  0  0  0  0
   -0.2561   -0.2326   -1.4819 C   0  0  0  0  0  0  0  0  0  0  0  0
   -1.4393   -0.0653   -0.6302 N   0  0  0  0  0  0  0  0  0  0  0  0
   -1.1685    0.3989    0.7491 C   0  0  1  0  0  0  0  0  0  0  0  0
   -0.0300   -0.4120    1.3892 C   0  0  0  0  0  0  0  0  0  0  0  0
   -0.8495    1.8991    0.7755 C   0  0  0  0  0  0  0  0  0  0  0  0
   -2.6387    0.2286   -1.2845 C   0  0  0  0  0  0  0  0  0  0  0  0
   -2.7045    0.4574   -2.4903 O   0  0  0  0  0  0  0  0  0  0  0  0
   -3.8970    0.2352   -0.5003 C   0  0  0  0  0  0  0  0  0  0  0  0
   -4.1936   -0.7896    0.4052 C   0  0  0  0  0  0  0  0  0  0  0  0
   -5.3961   -0.7657    1.1141 C   0  0  0  0  0  0  0  0  0  0  0  0
   -6.3081    0.2684    0.8977 C   0  0  0  0  0  0  0  0  0  0  0  0
   -6.0275    1.2724   -0.0307 C   0  0  0  0  0  0  0  0  0  0  0  0
   -4.8249    1.2539   -0.7350 C   0  0  0  0  0  0  0  0  0  0  0  0
    2.0264   -1.2204   -1.7734 C   0  0  0  0  0  0  0  0  0  0  0  0
    3.6499   -0.3891    0.6995 C   0  0  0  0  0  0  0  0  0  0  0  0
    3.8095    0.7668   -0.0764 C   0  0  0  0  0  0  0  0  0  0  0  0
    5.0647    1.0865   -0.5980 C   0  0  0  0  0  0  0  0  0  0  0  0
    6.1656    0.2761   -0.3182 C   0  0  0  0  0  0  0  0  0  0  0  0
    6.0189   -0.8499    0.4916 C   0  0  0  0  0  0  0  0  0  0  0  0
    4.7648   -1.1798    1.0053 C   0  0  0  0  0  0  0  0  0  0  0  0
    0.4899   -2.0512   -0.5818 H   0  0  0  0  0  0  0  0  0  0  0  0
   -0.5523   -0.7324   -2.4119 H   0  0  0  0  0  0  0  0  0  0  0  0
    0.0982    0.7706   -1.7506 H   0  0  0  0  0  0  0  0  0  0  0  0
   -2.0593    0.2595    1.3661 H   0  0  0  0  0  0  0  0  0  0  0  0
    0.2184    0.0014    2.3749 H   0  0  0  0  0  0  0  0  0  0  0  0
   -0.3570   -1.4490    1.5491 H   0  0  0  0  0  0  0  0  0  0  0  0
   -0.7246    2.2464    1.8066 H   0  0  0  0  0  0  0  0  0  0  0  0
   -1.6562    2.4813    0.3189 H   0  0  0  0  0  0  0  0  0  0  0  0
    0.0725    2.1288    0.2313 H   0  0  0  0  0  0  0  0  0  0  0  0
   -3.4965   -1.6111    0.5589 H   0  0  0  0  0  0  0  0  0  0  0  0
   -5.6262   -1.5536    1.8264 H   0  0  0  0  0  0  0  0  0  0  0  0
   -7.2482    0.2851    1.4446 H   0  0  0  0  0  0  0  0  0  0  0  0
   -6.7490    2.0654   -0.2108 H   0  0  0  0  0  0  0  0  0  0  0  0
   -4.6101    2.0271   -1.4707 H   0  0  0  0  0  0  0  0  0  0  0  0
    2.4350   -0.2615   -2.1022 H   0  0  0  0  0  0  0  0  0  0  0  0
    2.8273   -1.8308   -1.3484 H   0  0  0  0  0  0  0  0  0  0  0  0
    1.6831   -1.7461   -2.6717 H   0  0  0  0  0  0  0  0  0  0  0  0
    2.9593    1.4072   -0.2958 H   0  0  0  0  0  0  0  0  0  0  0  0
    5.1859    1.9654   -1.2268 H   0  0  0  0  0  0  0  0  0  0  0  0
    7.1427    0.5246   -0.7264 H   0  0  0  0  0  0  0  0  0  0  0  0
    6.8782   -1.4740    0.7221 H   0  0  0  0  0  0  0  0  0  0  0  0
    4.6523   -2.0571    1.6379 H   0  0  0  0  0  0  0  0  0  0  0  0
  2  1  2  0  0  0  0
  3  2  1  0  0  0  0
  3  8  1  0  0  0  0
  4 25  1  1  0  0  0
  4  3  1  0  0  0  0
  5  4  1  0  0  0  0
  5  6  1  0  0  0  0
  6  7  1  0  0  0  0
  7  9  1  0  0  0  0
  7 28  1  1  0  0  0
  7  8  1  0  0  0  0
  8 30  1  0  0  0  0
  8 29  1  0  0  0  0
  9 31  1  0  0  0  0
 10  6  1  0  0  0  0
 10 12  1  0  0  0  0
 11 10  2  0  0  0  0
 12 13  1  0  0  0  0
 13 34  1  0  0  0  0
 13 14  2  0  0  0  0
 14 35  1  0  0  0  0
 15 14  1  0  0  0  0
 15 36  1  0  0  0  0
 16 15  2  0  0  0  0
 17 12  2  0  0  0  0
 17 16  1  0  0  0  0
 18 40  1  0  0  0  0
 18  4  1  0  0  0  0
 19 24  1  0  0  0  0
 19  2  1  0  0  0  0
 20 19  2  0  0  0  0
 21 22  2  0  0  0  0
 21 20  1  0  0  0  0
 22 23  1  0  0  0  0
 23 45  1  0  0  0  0
 23 24  2  0  0  0  0
 24 46  1  0  0  0  0
 26  5  1  0  0  0  0
 27  5  1  0  0  0  0
 32  9  1  0  0  0  0
 33  9  1  0  0  0  0
 37 16  1  0  0  0  0
 38 17  1  0  0  0  0
 39 18  1  0  0  0  0
 41 18  1  0  0  0  0
 42 20  1  0  0  0  0
 43 21  1  0  0  0  0
 44 22  1  0  0  0  0
M  END
