58.4917
 OpenBabel10231816213D

 36 36  0  0  1  0  0  0  0  0999 V2000
    4.7313    0.5955   -1.0618 C   0  0  0  0  0  0  0  0  0  0  0  0
    4.4878    1.1872    0.2953 C   0  0  0  0  0  0  0  0  0  0  0  0
    3.9628   -0.1789   -0.0332 C   0  0  0  0  0  0  0  0  0  0  0  0
    2.5235   -0.3407   -0.2355 N   0  0  0  0  0  0  0  0  0  0  0  0
    1.7941   -0.4555    1.0336 C   0  0  0  0  0  0  0  0  0  0  0  0
    0.2705   -0.6793    0.8287 C   0  0  0  0  0  0  0  0  0  0  0  0
   -0.4175    0.5598    0.1466 C   0  0  1  0  0  0  0  0  0  0  0  0
   -0.1121    0.6890   -1.2977 N   0  0  0  0  0  0  0  0  0  0  0  0
   -1.9460    0.6022    0.3507 C   0  0  0  0  0  0  0  0  0  0  0  0
   -2.7288   -0.5536   -0.2792 C   0  0  0  0  0  0  0  0  0  0  0  0
   -4.2447   -0.4148   -0.1006 C   0  0  0  0  0  0  0  0  0  0  0  0
   -4.8456    0.7257   -0.9107 C   0  0  0  0  0  0  0  0  0  0  0  0
    0.1071   -1.8449    0.0216 O   0  0  0  0  0  0  0  0  0  0  0  0
   -0.3698   -0.9781    2.0658 O   0  0  0  0  0  0  0  0  0  0  0  0
    5.7340    0.2649   -1.3012 H   0  0  0  0  0  0  0  0  0  0  0  0
    4.1844    1.0074   -1.9037 H   0  0  0  0  0  0  0  0  0  0  0  0
    5.3170    1.2528    0.9879 H   0  0  0  0  0  0  0  0  0  0  0  0
    3.7758    2.0037    0.3739 H   0  0  0  0  0  0  0  0  0  0  0  0
    4.4698   -1.0261    0.4199 H   0  0  0  0  0  0  0  0  0  0  0  0
    2.3041   -1.1555   -0.8066 H   0  0  0  0  0  0  0  0  0  0  0  0
    2.1943   -1.3122    1.5899 H   0  0  0  0  0  0  0  0  0  0  0  0
    1.9483    0.4296    1.6570 H   0  0  0  0  0  0  0  0  0  0  0  0
   -0.0345    1.4629    0.6395 H   0  0  0  0  0  0  0  0  0  0  0  0
    0.8938    0.8748   -1.3763 H   0  0  0  0  0  0  0  0  0  0  0  0
   -0.2013   -0.2519   -1.6943 H   0  0  0  0  0  0  0  0  0  0  0  0
   -2.1648    0.6401    1.4238 H   0  0  0  0  0  0  0  0  0  0  0  0
   -2.3120    1.5575   -0.0563 H   0  0  0  0  0  0  0  0  0  0  0  0
   -2.4299   -1.4978    0.1905 H   0  0  0  0  0  0  0  0  0  0  0  0
   -2.4958   -0.6397   -1.3469 H   0  0  0  0  0  0  0  0  0  0  0  0
   -4.4825   -0.2780    0.9598 H   0  0  0  0  0  0  0  0  0  0  0  0
   -4.7146   -1.3496   -0.4160 H   0  0  0  0  0  0  0  0  0  0  0  0
   -5.9323    0.7377   -0.7853 H   0  0  0  0  0  0  0  0  0  0  0  0
   -4.4655    1.6984   -0.5880 H   0  0  0  0  0  0  0  0  0  0  0  0
   -4.6288    0.6053   -1.9766 H   0  0  0  0  0  0  0  0  0  0  0  0
   -0.4164   -2.4433    0.5808 H   0  0  0  0  0  0  0  0  0  0  0  0
    0.2445   -1.4945    2.6047 H   0  0  0  0  0  0  0  0  0  0  0  0
  1  3  1  0  0  0  0
  1  2  1  0  0  0  0
  2 18  1  0  0  0  0
  2 17  1  0  0  0  0
  3  2  1  0  0  0  0
  3 19  1  0  0  0  0
  4  3  1  0  0  0  0
  4  5  1  0  0  0  0
  5 21  1  0  0  0  0
  5 22  1  0  0  0  0
  6  5  1  0  0  0  0
  6 14  1  0  0  0  0
  7  9  1  0  0  0  0
  7 23  1  1  0  0  0
  7  6  1  0  0  0  0
  8  7  1  0  0  0  0
  9 26  1  0  0  0  0
 10 11  1  0  0  0  0
 10 28  1  0  0  0  0
 10  9  1  0  0  0  0
 11 30  1  0  0  0  0
 12 32  1  0  0  0  0
 12 33  1  0  0  0  0
 12 11  1  0  0  0  0
 13 35  1  0  0  0  0
 13  6  1  0  0  0  0
 14 36  1  0  0  0  0
 15  1  1  0  0  0  0
 16  1  1  0  0  0  0
 20  4  1  0  0  0  0
 24  8  1  0  0  0  0
 25  8  1  0  0  0  0
 27  9  1  0  0  0  0
 29 10  1  0  0  0  0
 31 11  1  0  0  0  0
 34 12  1  0  0  0  0
M  END
