-14.8531
 OpenBabel10231816213D

 66 68  0  0  1  0  0  0  0  0999 V2000
    0.8806   -0.4764   -1.2760 C   0  0  2  0  0  0  0  0  0  0  0  0
    0.3755   -1.5799   -2.2365 C   0  0  0  0  0  0  0  0  0  0  0  0
   -0.8771   -2.2805   -1.7346 C   0  0  0  0  0  0  0  0  0  0  0  0
   -0.9462   -2.8173   -0.4455 C   0  0  0  0  0  0  0  0  0  0  0  0
   -2.1372   -3.3580    0.0502 C   0  0  0  0  0  0  0  0  0  0  0  0
   -3.2784   -3.3820   -0.7405 C   0  0  0  0  0  0  0  0  0  0  0  0
   -3.2096   -2.9073   -2.0502 C   0  0  0  0  0  0  0  0  0  0  0  0
   -2.0198   -2.3549   -2.5424 C   0  0  0  0  0  0  0  0  0  0  0  0
   -4.4836   -3.8792   -0.3444 O   0  0  0  0  0  0  0  0  0  0  0  0
   -4.9345   -3.5588    0.9777 C   0  0  0  0  0  0  0  0  0  0  0  0
   -5.5850   -2.1694    1.0672 C   0  0  0  0  0  0  0  0  0  0  0  0
   -4.6262   -0.9817    0.8931 C   0  0  0  0  0  0  0  0  0  0  0  0
   -3.6185   -0.8780    2.0215 C   0  0  0  0  0  0  0  0  0  0  0  0
   -3.7480   -1.5128    3.0815 O   0  0  0  0  0  0  0  0  0  0  0  0
   -2.5643   -0.0242    1.8914 N   0  0  0  0  0  0  0  0  0  0  0  0
   -2.1164    0.6965    0.6897 C   0  0  2  0  0  0  0  0  0  0  0  0
   -0.6519    0.3148    0.4616 C   0  0  0  0  0  0  0  0  0  0  0  0
    0.1034   -0.0177    1.3888 O   0  0  0  0  0  0  0  0  0  0  0  0
   -0.2237    0.3666   -0.8362 N   0  0  0  0  0  0  0  0  0  0  0  0
   -2.2726    2.1963    0.8657 C   0  0  0  0  0  0  0  0  0  0  0  0
   -2.1062    2.9143   -0.4580 C   0  0  0  0  0  0  0  0  0  0  0  0
   -2.0938    2.3517   -1.5462 O   0  0  0  0  0  0  0  0  0  0  0  0
   -1.9854    4.2688   -0.3613 N   0  0  0  0  0  0  0  0  0  0  0  0
    1.9795    0.3719   -1.9214 C   0  0  2  0  0  0  0  0  0  0  0  0
    3.0109   -0.4406   -2.5055 O   0  0  0  0  0  0  0  0  0  0  0  0
    2.6039    1.3333   -0.8943 C   0  0  0  0  0  0  0  0  0  0  0  0
    3.6322    2.1093   -1.5884 N   0  0  0  0  0  0  0  0  0  0  0  0
    4.6315    3.1499   -0.7482 S   0  0  0  0  0  0  0  0  0  0  0  0
    5.7233    3.4442   -1.6477 O   0  0  0  0  0  0  0  0  0  0  0  0
    3.8060    4.1895   -0.1707 O   0  0  0  0  0  0  0  0  0  0  0  0
    5.2676    2.1582    0.5808 C   0  0  0  0  0  0  0  0  0  0  0  0
    6.3499    1.3054    0.3674 C   0  0  0  0  0  0  0  0  0  0  0  0
    6.8391    0.5364    1.4261 C   0  0  0  0  0  0  0  0  0  0  0  0
    6.2569    0.6344    2.6923 C   0  0  0  0  0  0  0  0  0  0  0  0
    5.1875    1.5051    2.9046 C   0  0  0  0  0  0  0  0  0  0  0  0
    4.6969    2.2740    1.8492 C   0  0  0  0  0  0  0  0  0  0  0  0
    1.2994   -0.9645   -0.3872 H   0  0  0  0  0  0  0  0  0  0  0  0
    1.1726   -2.3160   -2.4072 H   0  0  0  0  0  0  0  0  0  0  0  0
    0.1615   -1.1214   -3.2125 H   0  0  0  0  0  0  0  0  0  0  0  0
   -0.0782   -2.7915    0.2085 H   0  0  0  0  0  0  0  0  0  0  0  0
   -2.1487   -3.7652    1.0540 H   0  0  0  0  0  0  0  0  0  0  0  0
   -4.0945   -2.9455   -2.6829 H   0  0  0  0  0  0  0  0  0  0  0  0
   -1.9936   -1.9680   -3.5584 H   0  0  0  0  0  0  0  0  0  0  0  0
   -4.1633   -3.6847    1.7416 H   0  0  0  0  0  0  0  0  0  0  0  0
   -5.7129   -4.3066    1.1929 H   0  0  0  0  0  0  0  0  0  0  0  0
   -6.0620   -2.0819    2.0511 H   0  0  0  0  0  0  0  0  0  0  0  0
   -6.3751   -2.1013    0.3091 H   0  0  0  0  0  0  0  0  0  0  0  0
   -4.1205   -1.0471   -0.0682 H   0  0  0  0  0  0  0  0  0  0  0  0
   -5.2079   -0.0540    0.8830 H   0  0  0  0  0  0  0  0  0  0  0  0
   -1.8657   -0.1137    2.6288 H   0  0  0  0  0  0  0  0  0  0  0  0
   -2.6994    0.3610   -0.1668 H   0  0  0  0  0  0  0  0  0  0  0  0
   -0.8392    0.7788   -1.5422 H   0  0  0  0  0  0  0  0  0  0  0  0
   -3.2856    2.4030    1.2279 H   0  0  0  0  0  0  0  0  0  0  0  0
   -1.5674    2.5850    1.6069 H   0  0  0  0  0  0  0  0  0  0  0  0
   -2.1149    4.7628    0.5118 H   0  0  0  0  0  0  0  0  0  0  0  0
   -1.9564    4.8169   -1.2161 H   0  0  0  0  0  0  0  0  0  0  0  0
    1.5498    0.9539   -2.7417 H   0  0  0  0  0  0  0  0  0  0  0  0
    3.4419   -0.9291   -1.7829 H   0  0  0  0  0  0  0  0  0  0  0  0
    1.8459    1.9922   -0.4673 H   0  0  0  0  0  0  0  0  0  0  0  0
    3.0732    0.7512   -0.0971 H   0  0  0  0  0  0  0  0  0  0  0  0
    4.1409    1.5961   -2.3088 H   0  0  0  0  0  0  0  0  0  0  0  0
    6.8117    1.2411   -0.6132 H   0  0  0  0  0  0  0  0  0  0  0  0
    7.6780   -0.1358    1.2635 H   0  0  0  0  0  0  0  0  0  0  0  0
    6.6411    0.0351    3.5154 H   0  0  0  0  0  0  0  0  0  0  0  0
    4.7355    1.5886    3.8901 H   0  0  0  0  0  0  0  0  0  0  0  0
    3.8675    2.9587    2.0076 H   0  0  0  0  0  0  0  0  0  0  0  0
  1 19  1  0  0  0  0
  1 37  1  1  0  0  0
  2  3  1  0  0  0  0
  2  1  1  0  0  0  0
  3  4  2  0  0  0  0
  4  5  1  0  0  0  0
  4 40  1  0  0  0  0
  5 41  1  0  0  0  0
  6  9  1  0  0  0  0
  6  5  2  0  0  0  0
  7  6  1  0  0  0  0
  8  7  2  0  0  0  0
  8  3  1  0  0  0  0
  9 10  1  0  0  0  0
 10 11  1  0  0  0  0
 10 45  1  0  0  0  0
 10 44  1  0  0  0  0
 11 46  1  0  0  0  0
 12 11  1  0  0  0  0
 12 13  1  0  0  0  0
 13 14  2  0  0  0  0
 15 13  1  0  0  0  0
 15 50  1  0  0  0  0
 16 51  1  6  0  0  0
 16 20  1  0  0  0  0
 16 15  1  0  0  0  0
 17 16  1  0  0  0  0
 17 18  2  0  0  0  0
 19 17  1  0  0  0  0
 20 53  1  0  0  0  0
 20 54  1  0  0  0  0
 21 23  1  0  0  0  0
 21 20  1  0  0  0  0
 22 21  2  0  0  0  0
 23 55  1  0  0  0  0
 24 57  1  6  0  0  0
 24  1  1  0  0  0  0
 24 26  1  0  0  0  0
 25 24  1  0  0  0  0
 25 58  1  0  0  0  0
 26 59  1  0  0  0  0
 26 60  1  0  0  0  0
 27 26  1  0  0  0  0
 27 28  1  0  0  0  0
 28 30  2  0  0  0  0
 28 31  1  0  0  0  0
 29 28  2  0  0  0  0
 31 36  1  0  0  0  0
 32 31  2  0  0  0  0
 32 33  1  0  0  0  0
 33 34  2  0  0  0  0
 34 35  1  0  0  0  0
 34 64  1  0  0  0  0
 35 65  1  0  0  0  0
 36 66  1  0  0  0  0
 36 35  2  0  0  0  0
 38  2  1  0  0  0  0
 39  2  1  0  0  0  0
 42  7  1  0  0  0  0
 43  8  1  0  0  0  0
 47 11  1  0  0  0  0
 48 12  1  0  0  0  0
 49 12  1  0  0  0  0
 52 19  1  0  0  0  0
 56 23  1  0  0  0  0
 61 27  1  0  0  0  0
 62 32  1  0  0  0  0
 63 33  1  0  0  0  0
M  END
