-33.7539
 OpenBabel10231816213D

 41 42  0  0  0  0  0  0  0  0999 V2000
   -6.4096   -0.6385   -0.8648 C   0  0  0  0  0  0  0  0  0  0  0  0
   -5.6635   -0.2092    0.3118 N   0  0  0  0  0  0  0  0  0  0  0  0
   -6.4375    0.3221    1.4293 C   0  0  0  0  0  0  0  0  0  0  0  0
   -4.3001    0.0662    0.2170 C   0  0  0  0  0  0  0  0  0  0  0  0
   -3.5413   -0.2630   -0.9179 C   0  0  0  0  0  0  0  0  0  0  0  0
   -2.1601   -0.0118   -0.9956 C   0  0  0  0  0  0  0  0  0  0  0  0
   -1.4830    0.5783    0.0705 C   0  0  0  0  0  0  0  0  0  0  0  0
   -2.2100    0.9143    1.2044 C   0  0  0  0  0  0  0  0  0  0  0  0
   -3.5884    0.6601    1.2713 C   0  0  0  0  0  0  0  0  0  0  0  0
   -0.0990    0.7930   -0.0653 N   0  0  0  0  0  0  0  0  0  0  0  0
    0.7625    1.3358    0.8506 C   0  0  0  0  0  0  0  0  0  0  0  0
    0.4879    1.7517    1.9741 O   0  0  0  0  0  0  0  0  0  0  0  0
    2.0800    1.4134    0.4541 N   0  0  0  0  0  0  0  0  0  0  0  0
    2.6439    1.0498   -0.7531 C   0  0  0  0  0  0  0  0  0  0  0  0
    1.9915    0.6125   -1.7022 O   0  0  0  0  0  0  0  0  0  0  0  0
    4.1538    1.2143   -0.8054 C   0  0  0  0  0  0  0  0  0  0  0  0
    4.9013   -0.0621   -0.5013 C   0  0  0  0  0  0  0  0  0  0  0  0
    6.0005   -0.0522    0.3698 C   0  0  0  0  0  0  0  0  0  0  0  0
    6.7089   -1.2280    0.6306 C   0  0  0  0  0  0  0  0  0  0  0  0
    6.3318   -2.4227    0.0214 C   0  0  0  0  0  0  0  0  0  0  0  0
    5.2526   -2.4426   -0.8576 C   0  0  0  0  0  0  0  0  0  0  0  0
    4.5489   -1.2685   -1.1253 C   0  0  0  0  0  0  0  0  0  0  0  0
   -6.0267   -1.5930   -1.2423 H   0  0  0  0  0  0  0  0  0  0  0  0
   -7.4676   -0.8042   -0.6333 H   0  0  0  0  0  0  0  0  0  0  0  0
   -6.3621    0.1147   -1.6588 H   0  0  0  0  0  0  0  0  0  0  0  0
   -7.4917    0.0305    1.3670 H   0  0  0  0  0  0  0  0  0  0  0  0
   -6.4013    1.4170    1.4493 H   0  0  0  0  0  0  0  0  0  0  0  0
   -6.0687   -0.0732    2.3825 H   0  0  0  0  0  0  0  0  0  0  0  0
   -4.0044   -0.7328   -1.7805 H   0  0  0  0  0  0  0  0  0  0  0  0
   -1.6317   -0.2948   -1.9025 H   0  0  0  0  0  0  0  0  0  0  0  0
   -1.7442    1.3741    2.0688 H   0  0  0  0  0  0  0  0  0  0  0  0
   -4.0857    0.9445    2.1931 H   0  0  0  0  0  0  0  0  0  0  0  0
    0.3256    0.5060   -0.9441 H   0  0  0  0  0  0  0  0  0  0  0  0
    2.6695    1.7829    1.1847 H   0  0  0  0  0  0  0  0  0  0  0  0
    4.4269    1.5693   -1.8060 H   0  0  0  0  0  0  0  0  0  0  0  0
    4.4488    2.0068   -0.1061 H   0  0  0  0  0  0  0  0  0  0  0  0
    6.3222    0.8691    0.8506 H   0  0  0  0  0  0  0  0  0  0  0  0
    7.5597   -1.2123    1.3071 H   0  0  0  0  0  0  0  0  0  0  0  0
    6.8817   -3.3376    0.2253 H   0  0  0  0  0  0  0  0  0  0  0  0
    4.9587   -3.3709   -1.3411 H   0  0  0  0  0  0  0  0  0  0  0  0
    3.7196   -1.3094   -1.8298 H   0  0  0  0  0  0  0  0  0  0  0  0
  1 24  1  0  0  0  0
  1  2  1  0  0  0  0
  2  3  1  0  0  0  0
  3 27  1  0  0  0  0
  3 28  1  0  0  0  0
  4  2  1  0  0  0  0
  4  9  2  0  0  0  0
  5  4  1  0  0  0  0
  6  5  2  0  0  0  0
  6  7  1  0  0  0  0
  7  8  2  0  0  0  0
  8  9  1  0  0  0  0
  8 31  1  0  0  0  0
  9 32  1  0  0  0  0
 10  7  1  0  0  0  0
 10 11  1  0  0  0  0
 11 12  2  0  0  0  0
 13 11  1  0  0  0  0
 13 34  1  0  0  0  0
 14 13  1  0  0  0  0
 15 14  2  0  0  0  0
 16 14  1  0  0  0  0
 16 17  1  0  0  0  0
 16 36  1  0  0  0  0
 17 18  2  0  0  0  0
 18 19  1  0  0  0  0
 18 37  1  0  0  0  0
 19 38  1  0  0  0  0
 20 39  1  0  0  0  0
 20 19  2  0  0  0  0
 21 20  1  0  0  0  0
 22 21  2  0  0  0  0
 22 17  1  0  0  0  0
 23  1  1  0  0  0  0
 25  1  1  0  0  0  0
 26  3  1  0  0  0  0
 29  5  1  0  0  0  0
 30  6  1  0  0  0  0
 33 10  1  0  0  0  0
 35 16  1  0  0  0  0
 40 21  1  0  0  0  0
 41 22  1  0  0  0  0
M  END
