50.3518
 OpenBabel10231816213D

 36 36  0  0  1  0  0  0  0  0999 V2000
    4.3300   -0.1710   -0.4735 C   0  0  0  0  0  0  0  0  0  0  0  0
    5.0706   -0.2178    0.8277 C   0  0  0  0  0  0  0  0  0  0  0  0
    3.7326    0.4587    0.7519 C   0  0  0  0  0  0  0  0  0  0  0  0
    2.5995   -0.1815    1.4373 N   0  0  0  0  0  0  0  0  0  0  0  0
    1.3034    0.4594    1.0982 C   0  0  0  0  0  0  0  0  0  0  0  0
    0.7842    0.0115   -0.2979 C   0  0  0  0  0  0  0  0  0  0  0  0
   -0.7466    0.2692   -0.4885 C   0  0  1  0  0  0  0  0  0  0  0  0
   -1.1192    0.0822   -1.9169 N   0  0  0  0  0  0  0  0  0  0  0  0
   -1.6222   -0.6592    0.3791 C   0  0  0  0  0  0  0  0  0  0  0  0
   -3.0331   -0.1278    0.6639 C   0  0  0  0  0  0  0  0  0  0  0  0
   -3.8929    0.0745   -0.5814 C   0  0  0  0  0  0  0  0  0  0  0  0
   -5.3465    0.3313   -0.2238 C   0  0  0  0  0  0  0  0  0  0  0  0
    1.4855    0.7222   -1.3104 O   0  0  0  0  0  0  0  0  0  0  0  0
    1.0804   -1.3653   -0.5150 O   0  0  0  0  0  0  0  0  0  0  0  0
    3.9057   -1.0925   -0.8524 H   0  0  0  0  0  0  0  0  0  0  0  0
    4.6895    0.4963   -1.2487 H   0  0  0  0  0  0  0  0  0  0  0  0
    5.9478    0.4099    0.9368 H   0  0  0  0  0  0  0  0  0  0  0  0
    5.1415   -1.1756    1.3314 H   0  0  0  0  0  0  0  0  0  0  0  0
    3.7463    1.5468    0.7958 H   0  0  0  0  0  0  0  0  0  0  0  0
    2.7364   -0.0944    2.4464 H   0  0  0  0  0  0  0  0  0  0  0  0
    0.6067    0.1448    1.8791 H   0  0  0  0  0  0  0  0  0  0  0  0
    1.3802    1.5520    1.1553 H   0  0  0  0  0  0  0  0  0  0  0  0
   -0.9509    1.3174   -0.2400 H   0  0  0  0  0  0  0  0  0  0  0  0
   -0.8097   -0.8542   -2.1882 H   0  0  0  0  0  0  0  0  0  0  0  0
   -0.5447    0.7250   -2.4652 H   0  0  0  0  0  0  0  0  0  0  0  0
   -1.6950   -1.6540   -0.0817 H   0  0  0  0  0  0  0  0  0  0  0  0
   -1.1503   -0.8291    1.3528 H   0  0  0  0  0  0  0  0  0  0  0  0
   -2.9580    0.8181    1.2148 H   0  0  0  0  0  0  0  0  0  0  0  0
   -3.5284   -0.8395    1.3359 H   0  0  0  0  0  0  0  0  0  0  0  0
   -3.8349   -0.8103   -1.2254 H   0  0  0  0  0  0  0  0  0  0  0  0
   -3.5235    0.9316   -1.1547 H   0  0  0  0  0  0  0  0  0  0  0  0
   -5.7744   -0.5232    0.3094 H   0  0  0  0  0  0  0  0  0  0  0  0
   -5.9325    0.4920   -1.1338 H   0  0  0  0  0  0  0  0  0  0  0  0
   -5.4454    1.2186    0.4083 H   0  0  0  0  0  0  0  0  0  0  0  0
    1.5405    0.0646   -2.0267 H   0  0  0  0  0  0  0  0  0  0  0  0
    1.8269   -1.5310    0.1002 H   0  0  0  0  0  0  0  0  0  0  0  0
  1  3  1  0  0  0  0
  1  2  1  0  0  0  0
  2 17  1  0  0  0  0
  2 18  1  0  0  0  0
  3 19  1  0  0  0  0
  3  2  1  0  0  0  0
  3  4  1  0  0  0  0
  4 20  1  0  0  0  0
  5 22  1  0  0  0  0
  5  4  1  0  0  0  0
  5 21  1  0  0  0  0
  6  5  1  0  0  0  0
  7  6  1  0  0  0  0
  7 23  1  1  0  0  0
  7  9  1  0  0  0  0
  8  7  1  0  0  0  0
  9 10  1  0  0  0  0
  9 27  1  0  0  0  0
 10 28  1  0  0  0  0
 10 29  1  0  0  0  0
 11 12  1  0  0  0  0
 11 10  1  0  0  0  0
 12 32  1  0  0  0  0
 12 34  1  0  0  0  0
 13  6  1  0  0  0  0
 14  6  1  0  0  0  0
 14 36  1  0  0  0  0
 15  1  1  0  0  0  0
 16  1  1  0  0  0  0
 24  8  1  0  0  0  0
 25  8  1  0  0  0  0
 26  9  1  0  0  0  0
 30 11  1  0  0  0  0
 31 11  1  0  0  0  0
 33 12  1  0  0  0  0
 35 13  1  0  0  0  0
M  END
