-55.7627
 OpenBabel10231816213D

 39 40  0  0  0  0  0  0  0  0999 V2000
    1.4912    1.2582    0.6617 S   0  0  0  0  0  0  0  0  0  0  0  0
    0.9365    2.2967   -0.1875 O   0  0  0  0  0  0  0  0  0  0  0  0
    0.9039    1.0105    1.9553 O   0  0  0  0  0  0  0  0  0  0  0  0
    3.1021    1.5903    0.7938 N   0  0  0  0  0  0  0  0  0  0  0  0
    3.9684    1.3307    1.8581 C   0  0  0  0  0  0  0  0  0  0  0  0
    5.0562    1.9226    1.8506 O   0  0  0  0  0  0  0  0  0  0  0  0
    3.5887    0.3127    2.9005 C   0  0  0  0  0  0  0  0  0  0  0  0
    4.7384    0.0161    3.8559 C   0  0  0  0  0  0  0  0  0  0  0  0
    1.4224   -0.2435   -0.2646 C   0  0  0  0  0  0  0  0  0  0  0  0
    0.2067   -0.5994   -0.8407 C   0  0  0  0  0  0  0  0  0  0  0  0
   -0.9144    0.1956   -0.5923 N   0  0  0  0  0  0  0  0  0  0  0  0
   -2.2505   -0.1033   -0.8185 C   0  0  0  0  0  0  0  0  0  0  0  0
   -3.0690    0.8661   -1.3807 C   0  0  0  0  0  0  0  0  0  0  0  0
   -4.4032    0.5868   -1.6666 C   0  0  0  0  0  0  0  0  0  0  0  0
   -4.9105   -0.6872   -1.3932 C   0  0  0  0  0  0  0  0  0  0  0  0
   -4.0921   -1.6644   -0.8356 C   0  0  0  0  0  0  0  0  0  0  0  0
   -2.7641   -1.3749   -0.5551 C   0  0  0  0  0  0  0  0  0  0  0  0
   -5.2791    1.6301   -2.2812 C   0  0  0  0  0  0  0  0  0  0  0  0
   -5.6298    1.3199   -3.5593 F   0  0  0  0  0  0  0  0  0  0  0  0
   -6.4449    1.8058   -1.6007 F   0  0  0  0  0  0  0  0  0  0  0  0
   -4.6817    2.8529   -2.3362 F   0  0  0  0  0  0  0  0  0  0  0  0
    0.1369   -1.7760   -1.5946 C   0  0  0  0  0  0  0  0  0  0  0  0
    1.2843   -2.5333   -1.7312 C   0  0  0  0  0  0  0  0  0  0  0  0
    2.4735   -2.2034   -1.1862 N   0  0  0  0  0  0  0  0  0  0  0  0
    2.5225   -1.0517   -0.4741 C   0  0  0  0  0  0  0  0  0  0  0  0
    3.4117    2.3102    0.1569 H   0  0  0  0  0  0  0  0  0  0  0  0
    3.2727   -0.6078    2.4000 H   0  0  0  0  0  0  0  0  0  0  0  0
    2.7380    0.7008    3.4641 H   0  0  0  0  0  0  0  0  0  0  0  0
    5.0638    0.9278    4.3711 H   0  0  0  0  0  0  0  0  0  0  0  0
    5.6065   -0.3825    3.3178 H   0  0  0  0  0  0  0  0  0  0  0  0
    4.4437   -0.7156    4.6152 H   0  0  0  0  0  0  0  0  0  0  0  0
   -0.7048    1.1902   -0.4847 H   0  0  0  0  0  0  0  0  0  0  0  0
   -2.6614    1.8530   -1.5947 H   0  0  0  0  0  0  0  0  0  0  0  0
   -5.9493   -0.9021   -1.6204 H   0  0  0  0  0  0  0  0  0  0  0  0
   -4.4907   -2.6497   -0.6180 H   0  0  0  0  0  0  0  0  0  0  0  0
   -2.1234   -2.1291   -0.1015 H   0  0  0  0  0  0  0  0  0  0  0  0
   -0.7748   -2.0783   -2.1028 H   0  0  0  0  0  0  0  0  0  0  0  0
    1.2721   -3.4507   -2.3084 H   0  0  0  0  0  0  0  0  0  0  0  0
    3.5033   -0.8242   -0.0722 H   0  0  0  0  0  0  0  0  0  0  0  0
  1  4  1  0  0  0  0
  1  3  2  0  0  0  0
  2  1  2  0  0  0  0
  4  5  1  0  0  0  0
  5  7  1  0  0  0  0
  6  5  2  0  0  0  0
  7 28  1  0  0  0  0
  7  8  1  0  0  0  0
  8 29  1  0  0  0  0
  8 31  1  0  0  0  0
  9  1  1  0  0  0  0
 10 11  1  0  0  0  0
 10  9  2  0  0  0  0
 11 32  1  0  0  0  0
 12 11  1  0  0  0  0
 12 17  1  0  0  0  0
 13 12  2  0  0  0  0
 14 15  2  0  0  0  0
 14 13  1  0  0  0  0
 15 16  1  0  0  0  0
 16 35  1  0  0  0  0
 16 17  2  0  0  0  0
 17 36  1  0  0  0  0
 18 14  1  0  0  0  0
 18 20  1  0  0  0  0
 19 18  1  0  0  0  0
 21 18  1  0  0  0  0
 22 10  1  0  0  0  0
 23 22  2  0  0  0  0
 23 24  1  0  0  0  0
 24 25  2  0  0  0  0
 25  9  1  0  0  0  0
 25 39  1  0  0  0  0
 26  4  1  0  0  0  0
 27  7  1  0  0  0  0
 30  8  1  0  0  0  0
 33 13  1  0  0  0  0
 34 15  1  0  0  0  0
 37 22  1  0  0  0  0
 38 23  1  0  0  0  0
M  END
