47.9158
 OpenBabel10231816213D

 25 25  0  0  1  0  0  0  0  0999 V2000
   -2.1902   -2.9550   -2.1589 O   0  0  0  0  0  0  0  0  0  0  0  0
   -1.2525   -2.3970   -1.3524 C   0  0  0  0  0  0  0  0  0  0  0  0
   -0.1630   -2.9442   -1.2464 O   0  0  0  0  0  0  0  0  0  0  0  0
   -1.6693   -1.1777   -0.6592 C   0  0  0  0  0  0  0  0  0  0  0  0
   -2.9150   -0.6864   -0.7906 N   0  0  0  0  0  0  0  0  0  0  0  0
   -2.9747    0.4476   -0.0114 O   0  0  0  0  0  0  0  0  0  0  0  0
   -1.7799    0.6485    0.5929 C   0  0  0  0  0  0  0  0  0  0  0  0
   -0.8989   -0.3433    0.2118 C   0  0  0  0  0  0  0  0  0  0  0  0
    0.5397   -0.4537    0.6016 C   0  0  0  0  0  0  0  0  0  0  0  0
    1.4044    0.6356   -0.0587 C   0  0  2  0  0  0  0  0  0  0  0  0
    1.3925    0.4901   -1.5340 N   0  0  0  0  0  0  0  0  0  0  0  0
    2.8452    0.6030    0.4564 C   0  0  0  0  0  0  0  0  0  0  0  0
    3.8545    0.7829   -0.2077 O   0  0  0  0  0  0  0  0  0  0  0  0
    2.9360    0.4988    1.7977 O   0  0  0  0  0  0  0  0  0  0  0  0
   -1.6674    1.8390    1.4551 C   0  0  0  0  0  0  0  0  0  0  0  0
   -1.7408   -3.7445   -2.5194 H   0  0  0  0  0  0  0  0  0  0  0  0
    0.9417   -1.4447    0.3645 H   0  0  0  0  0  0  0  0  0  0  0  0
    0.5981   -0.3756    1.6953 H   0  0  0  0  0  0  0  0  0  0  0  0
    1.0215    1.6350    0.1835 H   0  0  0  0  0  0  0  0  0  0  0  0
    2.1775    1.0202   -1.9205 H   0  0  0  0  0  0  0  0  0  0  0  0
    0.5425    0.9091   -1.9097 H   0  0  0  0  0  0  0  0  0  0  0  0
    3.9011    0.5557    1.9672 H   0  0  0  0  0  0  0  0  0  0  0  0
   -1.5415    2.7393    0.8455 H   0  0  0  0  0  0  0  0  0  0  0  0
   -0.8024    1.7587    2.1211 H   0  0  0  0  0  0  0  0  0  0  0  0
   -2.5593    1.9587    2.0763 H   0  0  0  0  0  0  0  0  0  0  0  0
  1  2  1  0  0  0  0
  2  3  2  0  0  0  0
  2  4  1  0  0  0  0
  4  8  1  0  0  0  0
  5  4  2  0  0  0  0
  5  6  1  0  0  0  0
  6  7  1  0  0  0  0
  7 15  1  0  0  0  0
  8  7  2  0  0  0  0
  8  9  1  0  0  0  0
  9 18  1  0  0  0  0
 10 19  1  1  0  0  0
 10 12  1  0  0  0  0
 10  9  1  0  0  0  0
 11 10  1  0  0  0  0
 12 14  1  0  0  0  0
 13 12  2  0  0  0  0
 14 22  1  0  0  0  0
 15 25  1  0  0  0  0
 15 24  1  0  0  0  0
 16  1  1  0  0  0  0
 17  9  1  0  0  0  0
 20 11  1  0  0  0  0
 21 11  1  0  0  0  0
 23 15  1  0  0  0  0
M  END
