-84.766
 OpenBabel10231816213D

 35 36  0  0  0  0  0  0  0  0999 V2000
   -4.5704    0.3052   -0.6730 N   0  0  0  0  0  0  0  0  0  0  0  0
   -4.6149   -1.0299   -0.6203 C   0  0  0  0  0  0  0  0  0  0  0  0
   -3.6698   -1.8035   -0.0719 N   0  0  0  0  0  0  0  0  0  0  0  0
   -2.6473   -1.1836    0.5275 C   0  0  0  0  0  0  0  0  0  0  0  0
   -2.5220    0.1959    0.5808 C   0  0  0  0  0  0  0  0  0  0  0  0
   -3.5236    0.8861   -0.0603 C   0  0  0  0  0  0  0  0  0  0  0  0
   -1.3751    0.9006    1.2582 C   0  0  0  0  0  0  0  0  0  0  0  0
   -0.0070    0.6585    0.6410 C   0  0  0  0  0  0  0  0  0  0  0  0
    1.1289    0.6008    1.4614 C   0  0  0  0  0  0  0  0  0  0  0  0
    2.3974    0.3859    0.9160 C   0  0  0  0  0  0  0  0  0  0  0  0
    2.5614    0.1850   -0.4624 C   0  0  0  0  0  0  0  0  0  0  0  0
    1.4351    0.2533   -1.2851 C   0  0  0  0  0  0  0  0  0  0  0  0
    0.1704    0.5023   -0.7440 C   0  0  0  0  0  0  0  0  0  0  0  0
    3.8309   -0.0871   -0.8953 O   0  0  0  0  0  0  0  0  0  0  0  0
    4.0231   -0.2751   -2.2897 C   0  0  0  0  0  0  0  0  0  0  0  0
    3.4369    0.2652    1.8041 O   0  0  0  0  0  0  0  0  0  0  0  0
    4.3225    1.3828    1.7273 C   0  0  0  0  0  0  0  0  0  0  0  0
   -1.7384   -2.0130    1.1935 N   0  0  0  0  0  0  0  0  0  0  0  0
   -5.7067   -1.6484   -1.1809 N   0  0  0  0  0  0  0  0  0  0  0  0
   -3.5293    1.9785   -0.0947 H   0  0  0  0  0  0  0  0  0  0  0  0
   -1.3671    0.5833    2.3062 H   0  0  0  0  0  0  0  0  0  0  0  0
   -1.5476    1.9815    1.2685 H   0  0  0  0  0  0  0  0  0  0  0  0
    1.0311    0.7069    2.5436 H   0  0  0  0  0  0  0  0  0  0  0  0
    1.5020    0.1038   -2.3569 H   0  0  0  0  0  0  0  0  0  0  0  0
   -0.6818    0.5410   -1.4210 H   0  0  0  0  0  0  0  0  0  0  0  0
    3.4792   -1.1561   -2.6467 H   0  0  0  0  0  0  0  0  0  0  0  0
    5.0907   -0.4520   -2.4596 H   0  0  0  0  0  0  0  0  0  0  0  0
    3.7423    0.6210   -2.8537 H   0  0  0  0  0  0  0  0  0  0  0  0
    5.1444    1.2024    2.4266 H   0  0  0  0  0  0  0  0  0  0  0  0
    4.7592    1.5110    0.7321 H   0  0  0  0  0  0  0  0  0  0  0  0
    3.8109    2.3006    2.0351 H   0  0  0  0  0  0  0  0  0  0  0  0
   -0.7715   -1.7636    1.0440 H   0  0  0  0  0  0  0  0  0  0  0  0
   -1.9389   -2.9741    0.9356 H   0  0  0  0  0  0  0  0  0  0  0  0
   -6.1577   -1.0609   -1.8609 H   0  0  0  0  0  0  0  0  0  0  0  0
   -5.4973   -2.6041   -1.4249 H   0  0  0  0  0  0  0  0  0  0  0  0
  1  2  2  0  0  0  0
  1  6  1  0  0  0  0
  2  3  1  0  0  0  0
  3  4  2  0  0  0  0
  4  5  1  0  0  0  0
  4 18  1  0  0  0  0
  5  7  1  0  0  0  0
  6  5  2  0  0  0  0
  7 22  1  0  0  0  0
  7 21  1  0  0  0  0
  8  7  1  0  0  0  0
  8  9  2  0  0  0  0
  9 23  1  0  0  0  0
 10  9  1  0  0  0  0
 10 16  1  0  0  0  0
 11 10  2  0  0  0  0
 12 13  2  0  0  0  0
 12 11  1  0  0  0  0
 13  8  1  0  0  0  0
 14 11  1  0  0  0  0
 15 14  1  0  0  0  0
 17 16  1  0  0  0  0
 17 31  1  0  0  0  0
 17 29  1  0  0  0  0
 19  2  1  0  0  0  0
 20  6  1  0  0  0  0
 24 12  1  0  0  0  0
 25 13  1  0  0  0  0
 26 15  1  0  0  0  0
 27 15  1  0  0  0  0
 28 15  1  0  0  0  0
 30 17  1  0  0  0  0
 32 18  1  0  0  0  0
 33 18  1  0  0  0  0
 34 19  1  0  0  0  0
 35 19  1  0  0  0  0
M  END
