3.13799
 OpenBabel10231816213D

 39 41  0  0  1  0  0  0  0  0999 V2000
   -2.8622    1.3929   -1.2857 N   0  0  0  0  0  0  0  0  0  0  0  0
   -1.5711    1.1625   -1.5827 C   0  0  0  0  0  0  0  0  0  0  0  0
   -0.6865    0.4695   -0.8287 N   0  0  0  0  0  0  0  0  0  0  0  0
   -1.0723   -0.1022    0.3328 C   0  0  0  0  0  0  0  0  0  0  0  0
   -2.4068    0.0691    0.7217 C   0  0  0  0  0  0  0  0  0  0  0  0
   -3.2044    0.8117   -0.1282 C   0  0  0  0  0  0  0  0  0  0  0  0
   -4.4511    0.8609    0.4243 O   0  0  0  0  0  0  0  0  0  0  0  0
   -4.3338    0.1344    1.5781 C   0  0  0  0  0  0  0  0  0  0  0  0
   -3.1342   -0.3647    1.8112 N   0  0  0  0  0  0  0  0  0  0  0  0
   -5.5621    0.0111    2.3904 C   0  0  0  0  0  0  0  0  0  0  0  0
   -0.1586   -0.7917    1.1074 N   0  0  0  0  0  0  0  0  0  0  0  0
    1.0863   -1.3501    0.5877 C   0  0  1  0  0  0  0  0  0  0  0  0
    0.9731   -2.1488   -0.7207 C   0  0  0  0  0  0  0  0  0  0  0  0
    1.0909   -1.4406   -2.0525 C   0  0  0  0  0  0  0  0  0  0  0  0
    0.2351   -1.5355   -2.9282 O   0  0  0  0  0  0  0  0  0  0  0  0
    2.2747   -0.8530   -2.3167 O   0  0  0  0  0  0  0  0  0  0  0  0
    2.2779   -0.4088    0.6786 C   0  0  0  0  0  0  0  0  0  0  0  0
    3.5688   -0.9505    0.8280 C   0  0  0  0  0  0  0  0  0  0  0  0
    4.6975   -0.1288    0.8057 C   0  0  0  0  0  0  0  0  0  0  0  0
    4.5567    1.2474    0.6469 C   0  0  0  0  0  0  0  0  0  0  0  0
    3.2895    1.8025    0.5156 C   0  0  0  0  0  0  0  0  0  0  0  0
    2.1615    0.9819    0.5334 C   0  0  0  0  0  0  0  0  0  0  0  0
   -1.0348    1.7397   -2.8566 C   0  0  0  0  0  0  0  0  0  0  0  0
   -5.9209    0.9991    2.6930 H   0  0  0  0  0  0  0  0  0  0  0  0
   -5.3717   -0.5771    3.2925 H   0  0  0  0  0  0  0  0  0  0  0  0
   -6.3503   -0.4854    1.8167 H   0  0  0  0  0  0  0  0  0  0  0  0
   -0.5865   -1.2742    1.8926 H   0  0  0  0  0  0  0  0  0  0  0  0
    1.3147   -2.1227    1.3397 H   0  0  0  0  0  0  0  0  0  0  0  0
    0.0143   -2.6849   -0.7291 H   0  0  0  0  0  0  0  0  0  0  0  0
    1.7441   -2.9320   -0.7389 H   0  0  0  0  0  0  0  0  0  0  0  0
    2.9132   -0.8198   -1.5812 H   0  0  0  0  0  0  0  0  0  0  0  0
    3.7070   -2.0239    0.9455 H   0  0  0  0  0  0  0  0  0  0  0  0
    5.6896   -0.5616    0.9087 H   0  0  0  0  0  0  0  0  0  0  0  0
    5.4334    1.8897    0.6292 H   0  0  0  0  0  0  0  0  0  0  0  0
    3.1703    2.8767    0.3904 H   0  0  0  0  0  0  0  0  0  0  0  0
    1.1910    1.4546    0.4164 H   0  0  0  0  0  0  0  0  0  0  0  0
   -0.6070    0.9467   -3.4763 H   0  0  0  0  0  0  0  0  0  0  0  0
   -0.2514    2.4702   -2.6323 H   0  0  0  0  0  0  0  0  0  0  0  0
   -1.8237    2.2360   -3.4289 H   0  0  0  0  0  0  0  0  0  0  0  0
  1  6  1  0  0  0  0
  2  1  2  0  0  0  0
  2  3  1  0  0  0  0
  3  4  2  0  0  0  0
  4  5  1  0  0  0  0
  4 11  1  0  0  0  0
  5  9  1  0  0  0  0
  6  7  1  0  0  0  0
  6  5  2  0  0  0  0
  7  8  1  0  0  0  0
  8  9  2  0  0  0  0
  8 10  1  0  0  0  0
 10 24  1  0  0  0  0
 10 25  1  0  0  0  0
 11 27  1  0  0  0  0
 12 17  1  0  0  0  0
 12 11  1  0  0  0  0
 12 28  1  1  0  0  0
 13 12  1  0  0  0  0
 14 13  1  0  0  0  0
 15 14  2  0  0  0  0
 16 14  1  0  0  0  0
 16 31  1  0  0  0  0
 17 18  2  0  0  0  0
 18 32  1  0  0  0  0
 19 18  1  0  0  0  0
 19 33  1  0  0  0  0
 20 19  2  0  0  0  0
 21 22  2  0  0  0  0
 21 20  1  0  0  0  0
 22 17  1  0  0  0  0
 23 38  1  0  0  0  0
 23  2  1  0  0  0  0
 26 10  1  0  0  0  0
 29 13  1  0  0  0  0
 30 13  1  0  0  0  0
 34 20  1  0  0  0  0
 35 21  1  0  0  0  0
 36 22  1  0  0  0  0
 37 23  1  0  0  0  0
 39 23  1  0  0  0  0
M  END
