50.6686
 OpenBabel10231816213D

 25 25  0  0  1  0  0  0  0  0999 V2000
   -0.1441   -2.2385   -2.1750 O   0  0  0  0  0  0  0  0  0  0  0  0
   -1.0497   -2.5003   -1.1958 C   0  0  0  0  0  0  0  0  0  0  0  0
   -1.4762   -3.6435   -1.0913 O   0  0  0  0  0  0  0  0  0  0  0  0
   -1.4474   -1.3450   -0.3956 C   0  0  0  0  0  0  0  0  0  0  0  0
   -2.5208   -1.4366    0.4176 N   0  0  0  0  0  0  0  0  0  0  0  0
   -2.6597   -0.2080    1.0209 O   0  0  0  0  0  0  0  0  0  0  0  0
   -1.6904    0.6293    0.5820 C   0  0  0  0  0  0  0  0  0  0  0  0
   -0.8727   -0.0323   -0.3083 C   0  0  0  0  0  0  0  0  0  0  0  0
    0.3535    0.5160   -0.9725 C   0  0  0  0  0  0  0  0  0  0  0  0
    1.6631    0.1963   -0.2265 C   0  0  2  0  0  0  0  0  0  0  0  0
    1.8054   -1.2572    0.0011 N   0  0  0  0  0  0  0  0  0  0  0  0
    1.8080    0.9457    1.1073 C   0  0  0  0  0  0  0  0  0  0  0  0
    2.3023    0.5086    2.1347 O   0  0  0  0  0  0  0  0  0  0  0  0
    1.4596    2.2447    1.0307 O   0  0  0  0  0  0  0  0  0  0  0  0
   -1.7113    1.9923    1.1406 C   0  0  0  0  0  0  0  0  0  0  0  0
   -0.0584   -3.1153   -2.6046 H   0  0  0  0  0  0  0  0  0  0  0  0
    0.4223    0.1338   -1.9951 H   0  0  0  0  0  0  0  0  0  0  0  0
    0.2489    1.6017   -1.0864 H   0  0  0  0  0  0  0  0  0  0  0  0
    2.5064    0.5368   -0.8415 H   0  0  0  0  0  0  0  0  0  0  0  0
    2.6370   -1.4315    0.5669 H   0  0  0  0  0  0  0  0  0  0  0  0
    1.9062   -1.7420   -0.8876 H   0  0  0  0  0  0  0  0  0  0  0  0
    1.6699    2.5899    1.9249 H   0  0  0  0  0  0  0  0  0  0  0  0
   -2.7365    2.3682    1.2087 H   0  0  0  0  0  0  0  0  0  0  0  0
   -1.2663    2.0049    2.1399 H   0  0  0  0  0  0  0  0  0  0  0  0
   -1.1490    2.6820    0.5048 H   0  0  0  0  0  0  0  0  0  0  0  0
  1  2  1  0  0  0  0
  2  3  2  0  0  0  0
  2  4  1  0  0  0  0
  4  8  1  0  0  0  0
  4  5  2  0  0  0  0
  5  6  1  0  0  0  0
  7  6  1  0  0  0  0
  7 15  1  0  0  0  0
  8  7  2  0  0  0  0
  9  8  1  0  0  0  0
  9 10  1  0  0  0  0
 10 19  1  6  0  0  0
 10 11  1  0  0  0  0
 10 12  1  0  0  0  0
 11 20  1  0  0  0  0
 12 13  2  0  0  0  0
 14 12  1  0  0  0  0
 14 22  1  0  0  0  0
 15 23  1  0  0  0  0
 15 24  1  0  0  0  0
 16  1  1  0  0  0  0
 17  9  1  0  0  0  0
 18  9  1  0  0  0  0
 21 11  1  0  0  0  0
 25 15  1  0  0  0  0
M  END
