44.7523
 OpenBabel10231816213D

 36 36  0  0  1  0  0  0  0  0999 V2000
    4.1345    1.7458   -0.3510 C   0  0  0  0  0  0  0  0  0  0  0  0
    5.0752    1.1110    0.6313 C   0  0  0  0  0  0  0  0  0  0  0  0
    4.1012    0.2591   -0.1335 C   0  0  0  0  0  0  0  0  0  0  0  0
    2.9895   -0.3206    0.6065 N   0  0  0  0  0  0  0  0  0  0  0  0
    1.7677   -0.4977   -0.2066 C   0  0  0  0  0  0  0  0  0  0  0  0
    0.6252   -0.9227    0.7464 C   0  0  0  0  0  0  0  0  0  0  0  0
   -0.7676   -1.0851    0.0503 C   0  0  1  0  0  0  0  0  0  0  0  0
   -1.6923   -1.6597    1.0625 N   0  0  0  0  0  0  0  0  0  0  0  0
   -1.2838    0.2339   -0.5635 C   0  0  0  0  0  0  0  0  0  0  0  0
   -2.6795    0.1624   -1.1982 C   0  0  0  0  0  0  0  0  0  0  0  0
   -3.7958    0.5847   -0.2390 C   0  0  0  0  0  0  0  0  0  0  0  0
   -5.1636    0.4659   -0.8921 C   0  0  0  0  0  0  0  0  0  0  0  0
    0.5287    0.0291    1.8068 O   0  0  0  0  0  0  0  0  0  0  0  0
    0.9643   -2.1729    1.3507 O   0  0  0  0  0  0  0  0  0  0  0  0
    3.3176    2.3403    0.0412 H   0  0  0  0  0  0  0  0  0  0  0  0
    4.5431    2.1113   -1.2849 H   0  0  0  0  0  0  0  0  0  0  0  0
    4.8911    1.2779    1.6870 H   0  0  0  0  0  0  0  0  0  0  0  0
    6.1228    1.0481    0.3671 H   0  0  0  0  0  0  0  0  0  0  0  0
    4.5183   -0.3647   -0.9215 H   0  0  0  0  0  0  0  0  0  0  0  0
    3.2242   -1.2329    1.0126 H   0  0  0  0  0  0  0  0  0  0  0  0
    1.5258    0.4569   -0.6839 H   0  0  0  0  0  0  0  0  0  0  0  0
    1.9363   -1.2579   -0.9778 H   0  0  0  0  0  0  0  0  0  0  0  0
   -0.6741   -1.8378   -0.7422 H   0  0  0  0  0  0  0  0  0  0  0  0
   -1.7699   -0.9709    1.8203 H   0  0  0  0  0  0  0  0  0  0  0  0
   -2.6222   -1.7594    0.6644 H   0  0  0  0  0  0  0  0  0  0  0  0
   -0.5907    0.5125   -1.3679 H   0  0  0  0  0  0  0  0  0  0  0  0
   -1.2460    1.0490    0.1686 H   0  0  0  0  0  0  0  0  0  0  0  0
   -2.6992    0.8498   -2.0543 H   0  0  0  0  0  0  0  0  0  0  0  0
   -2.8674   -0.8395   -1.6015 H   0  0  0  0  0  0  0  0  0  0  0  0
   -3.7909   -0.0231    0.6692 H   0  0  0  0  0  0  0  0  0  0  0  0
   -3.6369    1.6228    0.0759 H   0  0  0  0  0  0  0  0  0  0  0  0
   -5.3617   -0.5656   -1.2004 H   0  0  0  0  0  0  0  0  0  0  0  0
   -5.2352    1.1099   -1.7737 H   0  0  0  0  0  0  0  0  0  0  0  0
   -5.9452    0.7652   -0.1868 H   0  0  0  0  0  0  0  0  0  0  0  0
    1.4657    0.2755    1.9621 H   0  0  0  0  0  0  0  0  0  0  0  0
    0.0910   -2.5004    1.6555 H   0  0  0  0  0  0  0  0  0  0  0  0
  1  3  1  0  0  0  0
  1 15  1  0  0  0  0
  1  2  1  0  0  0  0
  2 17  1  0  0  0  0
  3  4  1  0  0  0  0
  3  2  1  0  0  0  0
  4 20  1  0  0  0  0
  5  4  1  0  0  0  0
  5  6  1  0  0  0  0
  6 14  1  0  0  0  0
  6 13  1  0  0  0  0
  7 23  1  6  0  0  0
  7  6  1  0  0  0  0
  7  8  1  0  0  0  0
  8 24  1  0  0  0  0
  9  7  1  0  0  0  0
  9 27  1  0  0  0  0
 10  9  1  0  0  0  0
 10 11  1  0  0  0  0
 11 31  1  0  0  0  0
 11 30  1  0  0  0  0
 12 11  1  0  0  0  0
 12 34  1  0  0  0  0
 13 35  1  0  0  0  0
 14 36  1  0  0  0  0
 16  1  1  0  0  0  0
 18  2  1  0  0  0  0
 19  3  1  0  0  0  0
 21  5  1  0  0  0  0
 22  5  1  0  0  0  0
 25  8  1  0  0  0  0
 26  9  1  0  0  0  0
 28 10  1  0  0  0  0
 29 10  1  0  0  0  0
 32 12  1  0  0  0  0
 33 12  1  0  0  0  0
M  END
