-85.8256
 OpenBabel10231816213D

 35 36  0  0  0  0  0  0  0  0999 V2000
   -3.5603   -1.9320    0.0693 N   0  0  0  0  0  0  0  0  0  0  0  0
   -3.9790   -1.0234   -0.8022 C   0  0  0  0  0  0  0  0  0  0  0  0
   -3.5638    0.2468   -0.8657 N   0  0  0  0  0  0  0  0  0  0  0  0
   -2.6519    0.6312    0.0406 C   0  0  0  0  0  0  0  0  0  0  0  0
   -2.1134   -0.2367    0.9761 C   0  0  0  0  0  0  0  0  0  0  0  0
   -2.6273   -1.5269    0.9532 C   0  0  0  0  0  0  0  0  0  0  0  0
   -1.0365    0.1469    1.9514 C   0  0  0  0  0  0  0  0  0  0  0  0
    0.3644   -0.0732    1.4251 C   0  0  0  0  0  0  0  0  0  0  0  0
    0.9532    0.8547    0.5488 C   0  0  0  0  0  0  0  0  0  0  0  0
    2.2262    0.6267    0.0217 C   0  0  0  0  0  0  0  0  0  0  0  0
    2.9215   -0.5292    0.3556 C   0  0  0  0  0  0  0  0  0  0  0  0
    2.3690   -1.4418    1.2543 C   0  0  0  0  0  0  0  0  0  0  0  0
    1.0905   -1.2140    1.7777 C   0  0  0  0  0  0  0  0  0  0  0  0
    4.2031   -0.7580   -0.0778 O   0  0  0  0  0  0  0  0  0  0  0  0
    4.2443   -1.1834   -1.4428 C   0  0  0  0  0  0  0  0  0  0  0  0
    2.8778    1.4802   -0.8270 O   0  0  0  0  0  0  0  0  0  0  0  0
    2.1795    2.6619   -1.1910 C   0  0  0  0  0  0  0  0  0  0  0  0
   -2.1985    1.9493   -0.0895 N   0  0  0  0  0  0  0  0  0  0  0  0
   -4.9577   -1.3983   -1.6921 N   0  0  0  0  0  0  0  0  0  0  0  0
   -2.2979   -2.2908    1.6548 H   0  0  0  0  0  0  0  0  0  0  0  0
   -1.1450    1.1972    2.2570 H   0  0  0  0  0  0  0  0  0  0  0  0
   -1.1572   -0.4203    2.8837 H   0  0  0  0  0  0  0  0  0  0  0  0
    0.3995    1.7454    0.2799 H   0  0  0  0  0  0  0  0  0  0  0  0
    2.9304   -2.3248    1.5320 H   0  0  0  0  0  0  0  0  0  0  0  0
    0.6626   -1.9385    2.4676 H   0  0  0  0  0  0  0  0  0  0  0  0
    3.7299   -2.1442   -1.5697 H   0  0  0  0  0  0  0  0  0  0  0  0
    5.3022   -1.3222   -1.6925 H   0  0  0  0  0  0  0  0  0  0  0  0
    3.8251   -0.4470   -2.1385 H   0  0  0  0  0  0  0  0  0  0  0  0
    1.9816    3.2879   -0.3140 H   0  0  0  0  0  0  0  0  0  0  0  0
    2.8369    3.2078   -1.8693 H   0  0  0  0  0  0  0  0  0  0  0  0
    1.2450    2.4329   -1.7154 H   0  0  0  0  0  0  0  0  0  0  0  0
   -2.8093    2.4783   -0.7065 H   0  0  0  0  0  0  0  0  0  0  0  0
   -2.0019    2.4207    0.7804 H   0  0  0  0  0  0  0  0  0  0  0  0
   -5.1252   -2.3864   -1.7692 H   0  0  0  0  0  0  0  0  0  0  0  0
   -5.1178   -0.7768   -2.4661 H   0  0  0  0  0  0  0  0  0  0  0  0
  1  6  2  0  0  0  0
  2  1  1  0  0  0  0
  3  2  2  0  0  0  0
  3  4  1  0  0  0  0
  4  5  2  0  0  0  0
  5  7  1  0  0  0  0
  6  5  1  0  0  0  0
  6 20  1  0  0  0  0
  7 21  1  0  0  0  0
  7 22  1  0  0  0  0
  8 13  1  0  0  0  0
  8  7  1  0  0  0  0
  9  8  2  0  0  0  0
 10 11  2  0  0  0  0
 10  9  1  0  0  0  0
 11 12  1  0  0  0  0
 12 24  1  0  0  0  0
 12 13  2  0  0  0  0
 13 25  1  0  0  0  0
 14 11  1  0  0  0  0
 15 14  1  0  0  0  0
 16 10  1  0  0  0  0
 17 16  1  0  0  0  0
 17 29  1  0  0  0  0
 18  4  1  0  0  0  0
 18 33  1  0  0  0  0
 19  2  1  0  0  0  0
 23  9  1  0  0  0  0
 26 15  1  0  0  0  0
 27 15  1  0  0  0  0
 28 15  1  0  0  0  0
 30 17  1  0  0  0  0
 31 17  1  0  0  0  0
 32 18  1  0  0  0  0
 34 19  1  0  0  0  0
 35 19  1  0  0  0  0
M  END
