105.795
 OpenBabel10231816213D

 46 48  0  0  1  0  0  0  0  0999 V2000
    3.0420    2.1594   -0.1109 O   0  0  0  0  0  0  0  0  0  0  0  0
    2.6355    1.0019   -0.1891 C   0  0  0  0  0  0  0  0  0  0  0  0
    1.6574    0.5861   -1.0988 N   0  0  0  0  0  0  0  0  0  0  0  0
    0.8412   -0.6295   -0.8937 C   0  0  1  0  0  0  0  0  0  0  0  0
   -0.6752   -0.3367   -1.0396 C   0  0  0  0  0  0  0  0  0  0  0  0
   -1.0474    1.0161   -0.6002 N   0  0  0  0  0  0  0  0  0  0  0  0
   -0.2575    2.1387   -1.1550 C   0  0  1  0  0  0  0  0  0  0  0  0
    1.0023    1.6321   -1.8907 C   0  0  0  0  0  0  0  0  0  0  0  0
   -1.1298    2.9737   -2.0974 C   0  0  0  0  0  0  0  0  0  0  0  0
   -1.9862    1.3012    0.3854 C   0  0  0  0  0  0  0  0  0  0  0  0
   -2.0031    2.3624    1.0051 O   0  0  0  0  0  0  0  0  0  0  0  0
   -3.0479    0.3087    0.6776 C   0  0  0  0  0  0  0  0  0  0  0  0
   -3.4715    0.1578    2.0002 C   0  0  0  0  0  0  0  0  0  0  0  0
   -4.4823   -0.7531    2.3046 C   0  0  0  0  0  0  0  0  0  0  0  0
   -5.0799   -1.5004    1.2884 C   0  0  0  0  0  0  0  0  0  0  0  0
   -4.6830   -1.3268   -0.0373 C   0  0  0  0  0  0  0  0  0  0  0  0
   -3.6816   -0.4100   -0.3456 C   0  0  0  0  0  0  0  0  0  0  0  0
    1.2297   -1.7326   -1.8791 C   0  0  0  0  0  0  0  0  0  0  0  0
    3.2127    0.0066    0.7396 C   0  0  0  0  0  0  0  0  0  0  0  0
    3.9792   -1.0526    0.2431 C   0  0  0  0  0  0  0  0  0  0  0  0
    4.5003   -2.0003    1.1254 C   0  0  0  0  0  0  0  0  0  0  0  0
    4.2706   -1.8784    2.4966 C   0  0  0  0  0  0  0  0  0  0  0  0
    3.5245   -0.8026    2.9896 C   0  0  0  0  0  0  0  0  0  0  0  0
    3.0002    0.1429    2.1124 C   0  0  0  0  0  0  0  0  0  0  0  0
    0.9994   -0.9958    0.1259 H   0  0  0  0  0  0  0  0  0  0  0  0
   -1.2114   -1.1058   -0.4775 H   0  0  0  0  0  0  0  0  0  0  0  0
   -0.9839   -0.4126   -2.0894 H   0  0  0  0  0  0  0  0  0  0  0  0
    0.0539    2.7722   -0.3147 H   0  0  0  0  0  0  0  0  0  0  0  0
    1.6883    2.4613   -2.0922 H   0  0  0  0  0  0  0  0  0  0  0  0
    0.7351    1.1904   -2.8594 H   0  0  0  0  0  0  0  0  0  0  0  0
   -1.5228    2.3608   -2.9169 H   0  0  0  0  0  0  0  0  0  0  0  0
   -1.9921    3.3962   -1.5702 H   0  0  0  0  0  0  0  0  0  0  0  0
   -0.5625    3.8039   -2.5299 H   0  0  0  0  0  0  0  0  0  0  0  0
   -3.0186    0.7557    2.7884 H   0  0  0  0  0  0  0  0  0  0  0  0
   -4.8113   -0.8711    3.3330 H   0  0  0  0  0  0  0  0  0  0  0  0
   -5.8690   -2.2076    1.5309 H   0  0  0  0  0  0  0  0  0  0  0  0
   -5.1629   -1.8967   -0.8298 H   0  0  0  0  0  0  0  0  0  0  0  0
   -3.4020   -0.2566   -1.3852 H   0  0  0  0  0  0  0  0  0  0  0  0
    0.5874   -2.6102   -1.7484 H   0  0  0  0  0  0  0  0  0  0  0  0
    1.1298   -1.3894   -2.9147 H   0  0  0  0  0  0  0  0  0  0  0  0
    2.2639   -2.0560   -1.7438 H   0  0  0  0  0  0  0  0  0  0  0  0
    4.1735   -1.1353   -0.8219 H   0  0  0  0  0  0  0  0  0  0  0  0
    5.0920   -2.8295    0.7448 H   0  0  0  0  0  0  0  0  0  0  0  0
    4.6825   -2.6143    3.1831 H   0  0  0  0  0  0  0  0  0  0  0  0
    3.3593   -0.7074    4.0612 H   0  0  0  0  0  0  0  0  0  0  0  0
    2.4209    0.9832    2.4962 H   0  0  0  0  0  0  0  0  0  0  0  0
  2  1  2  0  0  0  0
  2 19  1  0  0  0  0
  3  4  1  0  0  0  0
  3  2  1  0  0  0  0
  4 25  1  1  0  0  0
  5  4  1  0  0  0  0
  5  6  1  0  0  0  0
  5 26  1  0  0  0  0
  6 10  1  0  0  0  0
  7  6  1  0  0  0  0
  7 28  1  1  0  0  0
  8  7  1  0  0  0  0
  8  3  1  0  0  0  0
  9 32  1  0  0  0  0
  9  7  1  0  0  0  0
 10 12  1  0  0  0  0
 10 11  2  0  0  0  0
 12 13  2  0  0  0  0
 13 14  1  0  0  0  0
 13 34  1  0  0  0  0
 14 35  1  0  0  0  0
 15 36  1  0  0  0  0
 15 14  2  0  0  0  0
 16 15  1  0  0  0  0
 17 16  2  0  0  0  0
 17 12  1  0  0  0  0
 18 39  1  0  0  0  0
 18 41  1  0  0  0  0
 18  4  1  0  0  0  0
 19 24  1  0  0  0  0
 20 19  2  0  0  0  0
 20 21  1  0  0  0  0
 21 22  2  0  0  0  0
 22 23  1  0  0  0  0
 22 44  1  0  0  0  0
 23 45  1  0  0  0  0
 24 46  1  0  0  0  0
 24 23  2  0  0  0  0
 27  5  1  0  0  0  0
 29  8  1  0  0  0  0
 30  8  1  0  0  0  0
 31  9  1  0  0  0  0
 33  9  1  0  0  0  0
 37 16  1  0  0  0  0
 38 17  1  0  0  0  0
 40 18  1  0  0  0  0
 42 20  1  0  0  0  0
 43 21  1  0  0  0  0
M  END
