35.5106
 OpenBabel10231816213D

 61 65  0  0  0  0  0  0  0  0999 V2000
    8.4273   -1.1569   -2.6834 N   0  0  0  0  0  0  0  0  0  0  0  0
    7.9639    0.1073   -2.5974 C   0  0  0  0  0  0  0  0  0  0  0  0
    6.8815    0.4807   -1.8216 C   0  0  0  0  0  0  0  0  0  0  0  0
    6.1844   -0.4836   -1.0857 C   0  0  0  0  0  0  0  0  0  0  0  0
    6.6507   -1.7969   -1.1829 C   0  0  0  0  0  0  0  0  0  0  0  0
    7.7567   -2.0816   -1.9638 C   0  0  0  0  0  0  0  0  0  0  0  0
    5.0902   -0.1582   -0.2979 N   0  0  0  0  0  0  0  0  0  0  0  0
    4.6483   -1.0299    0.7857 C   0  0  0  0  0  0  0  0  0  0  0  0
    4.0442   -0.1850    1.9050 C   0  0  0  0  0  0  0  0  0  0  0  0
    2.7933    0.5733    1.4193 C   0  0  0  0  0  0  0  0  0  0  0  0
    2.9250    0.9365   -0.0698 C   0  0  0  0  0  0  0  0  0  0  0  0
    4.3779    1.1041   -0.4967 C   0  0  0  0  0  0  0  0  0  0  0  0
    1.5516   -0.2744    1.6293 C   0  0  0  0  0  0  0  0  0  0  0  0
    1.6520   -1.5166    1.6699 O   0  0  0  0  0  0  0  0  0  0  0  0
    0.3282    0.3435    1.7206 N   0  0  0  0  0  0  0  0  0  0  0  0
   -0.8814   -0.4760    1.7815 C   0  0  0  0  0  0  0  0  0  0  0  0
   -1.6792   -0.3583    0.4820 C   0  0  0  0  0  0  0  0  0  0  0  0
   -1.9776    1.0614    0.1400 N   0  0  0  0  0  0  0  0  0  0  0  0
   -0.7388    1.8974    0.1355 C   0  0  0  0  0  0  0  0  0  0  0  0
    0.0403    1.7634    1.4492 C   0  0  0  0  0  0  0  0  0  0  0  0
   -3.2656    1.8167    0.9595 S   0  0  0  0  0  0  0  0  0  0  0  0
   -3.0154    1.6982    2.3768 O   0  0  0  0  0  0  0  0  0  0  0  0
   -3.4476    3.1075    0.3465 O   0  0  0  0  0  0  0  0  0  0  0  0
   -4.6463    0.7879    0.5468 C   0  0  0  0  0  0  0  0  0  0  0  0
   -5.0878    0.6772   -0.7734 C   0  0  0  0  0  0  0  0  0  0  0  0
   -6.1847   -0.1434   -1.0723 C   0  0  0  0  0  0  0  0  0  0  0  0
   -6.8388   -0.8640   -0.0308 C   0  0  0  0  0  0  0  0  0  0  0  0
   -6.3630   -0.7424    1.2810 C   0  0  0  0  0  0  0  0  0  0  0  0
   -5.2644    0.0791    1.5679 C   0  0  0  0  0  0  0  0  0  0  0  0
   -7.9392   -1.6758   -0.3357 C   0  0  0  0  0  0  0  0  0  0  0  0
   -8.3936   -1.7787   -1.6581 C   0  0  0  0  0  0  0  0  0  0  0  0
   -7.7607   -1.0814   -2.6747 C   0  0  0  0  0  0  0  0  0  0  0  0
   -6.6605   -0.2666   -2.3863 C   0  0  0  0  0  0  0  0  0  0  0  0
   -9.7451   -2.7788   -2.0172 Cl  0  0  0  0  0  0  0  0  0  0  0  0
    8.5132    0.8414   -3.1787 H   0  0  0  0  0  0  0  0  0  0  0  0
    6.5987    1.5267   -1.8001 H   0  0  0  0  0  0  0  0  0  0  0  0
    6.1598   -2.6121   -0.6623 H   0  0  0  0  0  0  0  0  0  0  0  0
    8.1366   -3.0954   -2.0453 H   0  0  0  0  0  0  0  0  0  0  0  0
    3.9193   -1.7555    0.4083 H   0  0  0  0  0  0  0  0  0  0  0  0
    5.5000   -1.5821    1.1961 H   0  0  0  0  0  0  0  0  0  0  0  0
    3.8068   -0.8267    2.7637 H   0  0  0  0  0  0  0  0  0  0  0  0
    4.7915    0.5414    2.2483 H   0  0  0  0  0  0  0  0  0  0  0  0
    2.7014    1.4742    2.0417 H   0  0  0  0  0  0  0  0  0  0  0  0
    2.4791    0.1311   -0.6707 H   0  0  0  0  0  0  0  0  0  0  0  0
    2.3610    1.8430   -0.2985 H   0  0  0  0  0  0  0  0  0  0  0  0
    4.8679    1.9022    0.0743 H   0  0  0  0  0  0  0  0  0  0  0  0
    4.3847    1.3843   -1.5561 H   0  0  0  0  0  0  0  0  0  0  0  0
   -1.4704   -0.1364    2.6321 H   0  0  0  0  0  0  0  0  0  0  0  0
   -0.6273   -1.5256    1.9655 H   0  0  0  0  0  0  0  0  0  0  0  0
   -1.1017   -0.7769   -0.3522 H   0  0  0  0  0  0  0  0  0  0  0  0
   -2.6132   -0.9194    0.5414 H   0  0  0  0  0  0  0  0  0  0  0  0
   -0.1213    1.5800   -0.7140 H   0  0  0  0  0  0  0  0  0  0  0  0
   -1.0120    2.9429   -0.0305 H   0  0  0  0  0  0  0  0  0  0  0  0
   -0.5591    2.1264    2.2874 H   0  0  0  0  0  0  0  0  0  0  0  0
    0.9459    2.3592    1.4190 H   0  0  0  0  0  0  0  0  0  0  0  0
   -4.5841    1.2326   -1.5612 H   0  0  0  0  0  0  0  0  0  0  0  0
   -6.8443   -1.2783    2.0970 H   0  0  0  0  0  0  0  0  0  0  0  0
   -4.9111    0.1598    2.5981 H   0  0  0  0  0  0  0  0  0  0  0  0
   -8.4515   -2.2322    0.4487 H   0  0  0  0  0  0  0  0  0  0  0  0
   -8.1197   -1.1654   -3.7038 H   0  0  0  0  0  0  0  0  0  0  0  0
   -6.1762    0.2754   -3.1970 H   0  0  0  0  0  0  0  0  0  0  0  0
  1  2  2  0  0  0  0
  1  6  1  0  0  0  0
  2  3  1  0  0  0  0
  3 36  1  0  0  0  0
  3  4  2  0  0  0  0
  4  7  1  0  0  0  0
  5  4  1  0  0  0  0
  5 37  1  0  0  0  0
  6  5  2  0  0  0  0
  7  8  1  0  0  0  0
  8 40  1  0  0  0  0
  8  9  1  0  0  0  0
  9 42  1  0  0  0  0
  9 41  1  0  0  0  0
 10 13  1  0  0  0  0
 10  9  1  0  0  0  0
 10 43  1  0  0  0  0
 11 10  1  0  0  0  0
 12  7  1  0  0  0  0
 12 11  1  0  0  0  0
 12 46  1  0  0  0  0
 13 14  2  0  0  0  0
 13 15  1  0  0  0  0
 15 16  1  0  0  0  0
 16 49  1  0  0  0  0
 16 48  1  0  0  0  0
 17 51  1  0  0  0  0
 17 16  1  0  0  0  0
 18 17  1  0  0  0  0
 18 21  1  0  0  0  0
 19 18  1  0  0  0  0
 19 20  1  0  0  0  0
 20 15  1  0  0  0  0
 20 54  1  0  0  0  0
 21 22  2  0  0  0  0
 23 21  2  0  0  0  0
 24 21  1  0  0  0  0
 24 29  2  0  0  0  0
 25 24  1  0  0  0  0
 26 25  2  0  0  0  0
 26 27  1  0  0  0  0
 27 28  2  0  0  0  0
 28 29  1  0  0  0  0
 28 57  1  0  0  0  0
 29 58  1  0  0  0  0
 30 27  1  0  0  0  0
 30 59  1  0  0  0  0
 31 30  2  0  0  0  0
 32 33  2  0  0  0  0
 32 31  1  0  0  0  0
 33 26  1  0  0  0  0
 34 31  1  0  0  0  0
 35  2  1  0  0  0  0
 38  6  1  0  0  0  0
 39  8  1  0  0  0  0
 44 11  1  0  0  0  0
 45 11  1  0  0  0  0
 47 12  1  0  0  0  0
 50 17  1  0  0  0  0
 52 19  1  0  0  0  0
 53 19  1  0  0  0  0
 55 20  1  0  0  0  0
 56 25  1  0  0  0  0
 60 32  1  0  0  0  0
 61 33  1  0  0  0  0
M  END
