39.5515
 OpenBabel10231816213D

 57 60  0  0  1  0  0  0  0  0999 V2000
   -2.3597   -0.0225   -1.4909 C   0  0  0  0  0  0  0  0  0  0  0  0
   -2.8719   -1.0881   -0.5185 C   0  0  2  0  0  0  0  0  0  0  0  0
   -2.7939   -2.4687   -1.2036 C   0  0  0  0  0  0  0  0  0  0  0  0
   -1.8004   -3.0382   -1.6296 O   0  0  0  0  0  0  0  0  0  0  0  0
   -4.0710   -2.9814   -1.2760 N   0  0  0  0  0  0  0  0  0  0  0  0
   -5.0781   -2.0499   -0.8887 C   0  0  0  0  0  0  0  0  0  0  0  0
   -4.3307   -0.9677   -0.2743 N   0  0  0  0  0  0  0  0  0  0  0  0
   -4.9976    0.1445    0.1902 C   0  0  0  0  0  0  0  0  0  0  0  0
   -4.3480    1.2550    0.7442 C   0  0  0  0  0  0  0  0  0  0  0  0
   -5.0557    2.3645    1.2127 C   0  0  0  0  0  0  0  0  0  0  0  0
   -6.4439    2.3902    1.1348 C   0  0  0  0  0  0  0  0  0  0  0  0
   -7.1023    1.3161    0.5997 C   0  0  0  0  0  0  0  0  0  0  0  0
   -6.3976    0.1994    0.1328 C   0  0  0  0  0  0  0  0  0  0  0  0
   -2.0743   -1.1479    0.7824 C   0  0  0  0  0  0  0  0  0  0  0  0
   -0.5691   -1.1191    0.5230 C   0  0  0  0  0  0  0  0  0  0  0  0
   -0.2020    0.0377   -0.2975 N   0  0  0  0  0  0  0  0  0  0  0  0
    1.2613    0.1522   -0.4501 C   0  0  0  0  0  0  0  0  0  0  0  0
    1.9388    0.5850    0.8618 C   0  0  0  0  0  0  0  0  0  0  0  0
    3.3911    0.9516    0.6954 C   0  0  0  0  0  0  0  0  0  0  0  0
    4.4151    0.0814    0.5837 C   0  0  0  0  0  0  0  0  0  0  0  0
    5.7827    0.6199    0.3785 C   0  0  0  0  0  0  0  0  0  0  0  0
    6.8516    0.1748    1.1667 C   0  0  0  0  0  0  0  0  0  0  0  0
    8.1407    0.6742    0.9759 C   0  0  0  0  0  0  0  0  0  0  0  0
    8.3562    1.6229   -0.0138 C   0  0  0  0  0  0  0  0  0  0  0  0
    7.3210    2.0857   -0.8133 C   0  0  0  0  0  0  0  0  0  0  0  0
    6.0347    1.5836   -0.6143 C   0  0  0  0  0  0  0  0  0  0  0  0
    9.5922    2.1037   -0.2007 F   0  0  0  0  0  0  0  0  0  0  0  0
    4.2526   -1.4167    0.6081 C   0  0  0  0  0  0  0  0  0  0  0  0
   -0.8375   -0.0634   -1.6163 C   0  0  0  0  0  0  0  0  0  0  0  0
   -2.6451    0.9857   -1.1709 H   0  0  0  0  0  0  0  0  0  0  0  0
   -2.8211   -0.1668   -2.4744 H   0  0  0  0  0  0  0  0  0  0  0  0
   -4.2325   -3.8096   -1.8323 H   0  0  0  0  0  0  0  0  0  0  0  0
   -5.7818   -2.5062   -0.1794 H   0  0  0  0  0  0  0  0  0  0  0  0
   -5.6290   -1.7001   -1.7741 H   0  0  0  0  0  0  0  0  0  0  0  0
   -3.2647    1.2898    0.8065 H   0  0  0  0  0  0  0  0  0  0  0  0
   -4.5112    3.2055    1.6330 H   0  0  0  0  0  0  0  0  0  0  0  0
   -6.9981    3.2535    1.4953 H   0  0  0  0  0  0  0  0  0  0  0  0
   -8.1982    1.2951    0.5207 H   0  0  0  0  0  0  0  0  0  0  0  0
   -6.9553   -0.6323   -0.2873 H   0  0  0  0  0  0  0  0  0  0  0  0
   -2.3280   -2.0581    1.3352 H   0  0  0  0  0  0  0  0  0  0  0  0
   -2.3316   -0.3176    1.4460 H   0  0  0  0  0  0  0  0  0  0  0  0
   -0.2516   -2.0527    0.0453 H   0  0  0  0  0  0  0  0  0  0  0  0
   -0.0611   -1.0590    1.4886 H   0  0  0  0  0  0  0  0  0  0  0  0
    1.4593    0.9150   -1.2110 H   0  0  0  0  0  0  0  0  0  0  0  0
    1.6948   -0.7894   -0.8133 H   0  0  0  0  0  0  0  0  0  0  0  0
    1.4030    1.4541    1.2655 H   0  0  0  0  0  0  0  0  0  0  0  0
    1.8452   -0.2144    1.6052 H   0  0  0  0  0  0  0  0  0  0  0  0
    3.6135    2.0171    0.6344 H   0  0  0  0  0  0  0  0  0  0  0  0
    6.6741   -0.5519    1.9526 H   0  0  0  0  0  0  0  0  0  0  0  0
    8.9712    0.3322    1.5869 H   0  0  0  0  0  0  0  0  0  0  0  0
    7.5234    2.8305   -1.5772 H   0  0  0  0  0  0  0  0  0  0  0  0
    5.2212    1.9366   -1.2436 H   0  0  0  0  0  0  0  0  0  0  0  0
    4.9878   -1.9029    1.2541 H   0  0  0  0  0  0  0  0  0  0  0  0
    3.2616   -1.7312    0.9543 H   0  0  0  0  0  0  0  0  0  0  0  0
    4.3881   -1.8197   -0.4012 H   0  0  0  0  0  0  0  0  0  0  0  0
   -0.5192   -0.9731   -2.1383 H   0  0  0  0  0  0  0  0  0  0  0  0
   -0.5189    0.7912   -2.2228 H   0  0  0  0  0  0  0  0  0  0  0  0
  1 30  1  0  0  0  0
  2  1  1  6  0  0  0
  2  7  1  0  0  0  0
  2 14  1  0  0  0  0
  3  2  1  0  0  0  0
  4  3  2  0  0  0  0
  5  3  1  0  0  0  0
  5  6  1  0  0  0  0
  6  7  1  0  0  0  0
  6 33  1  0  0  0  0
  7  8  1  0  0  0  0
  8  9  1  0  0  0  0
  9 35  1  0  0  0  0
  9 10  2  0  0  0  0
 10 36  1  0  0  0  0
 11 10  1  0  0  0  0
 11 37  1  0  0  0  0
 12 11  2  0  0  0  0
 13  8  2  0  0  0  0
 13 12  1  0  0  0  0
 14 40  1  0  0  0  0
 14 41  1  0  0  0  0
 15 14  1  0  0  0  0
 15 43  1  0  0  0  0
 16 15  1  0  0  0  0
 17 16  1  0  0  0  0
 17 18  1  0  0  0  0
 18 46  1  0  0  0  0
 18 47  1  0  0  0  0
 19 18  1  0  0  0  0
 20 28  1  0  0  0  0
 20 19  2  0  0  0  0
 21 20  1  0  0  0  0
 21 22  2  0  0  0  0
 22 49  1  0  0  0  0
 23 22  1  0  0  0  0
 23 50  1  0  0  0  0
 24 23  2  0  0  0  0
 25 26  2  0  0  0  0
 25 24  1  0  0  0  0
 26 21  1  0  0  0  0
 27 24  1  0  0  0  0
 28 54  1  0  0  0  0
 28 53  1  0  0  0  0
 29  1  1  0  0  0  0
 29 16  1  0  0  0  0
 31  1  1  0  0  0  0
 32  5  1  0  0  0  0
 34  6  1  0  0  0  0
 38 12  1  0  0  0  0
 39 13  1  0  0  0  0
 42 15  1  0  0  0  0
 44 17  1  0  0  0  0
 45 17  1  0  0  0  0
 48 19  1  0  0  0  0
 51 25  1  0  0  0  0
 52 26  1  0  0  0  0
 55 28  1  0  0  0  0
 56 29  1  0  0  0  0
 57 29  1  0  0  0  0
M  END
