-4.55735
 OpenBabel10231816213D

 66 68  0  0  1  0  0  0  0  0999 V2000
    0.7060   -0.9016    1.1435 C   0  0  2  0  0  0  0  0  0  0  0  0
    1.0186   -1.9329    0.0441 C   0  0  0  0  0  0  0  0  0  0  0  0
   -0.2584   -2.5893   -0.4457 C   0  0  0  0  0  0  0  0  0  0  0  0
   -0.8249   -2.2397   -1.6802 C   0  0  0  0  0  0  0  0  0  0  0  0
   -2.1006   -2.6914   -2.0356 C   0  0  0  0  0  0  0  0  0  0  0  0
   -2.8287   -3.4802   -1.1544 C   0  0  0  0  0  0  0  0  0  0  0  0
   -2.2386   -3.9081    0.0350 C   0  0  0  0  0  0  0  0  0  0  0  0
   -0.9647   -3.4561    0.3917 C   0  0  0  0  0  0  0  0  0  0  0  0
   -4.1094   -3.8797   -1.3920 O   0  0  0  0  0  0  0  0  0  0  0  0
   -5.0695   -2.8438   -1.6745 C   0  0  0  0  0  0  0  0  0  0  0  0
   -5.4265   -1.9812   -0.4545 C   0  0  0  0  0  0  0  0  0  0  0  0
   -4.4298   -0.8462   -0.1980 C   0  0  0  0  0  0  0  0  0  0  0  0
   -4.6299   -0.1852    1.1467 C   0  0  0  0  0  0  0  0  0  0  0  0
   -5.6075   -0.4192    1.8749 O   0  0  0  0  0  0  0  0  0  0  0  0
   -3.6776    0.6960    1.5683 N   0  0  0  0  0  0  0  0  0  0  0  0
   -2.5063    1.1357    0.8200 C   0  0  2  0  0  0  0  0  0  0  0  0
   -1.2609    0.5811    1.5164 C   0  0  0  0  0  0  0  0  0  0  0  0
   -1.0866    0.6398    2.7251 O   0  0  0  0  0  0  0  0  0  0  0  0
   -0.3286    0.0271    0.6693 N   0  0  0  0  0  0  0  0  0  0  0  0
   -2.4365    2.6477    0.7343 C   0  0  0  0  0  0  0  0  0  0  0  0
   -3.5607    3.1276   -0.1536 C   0  0  0  0  0  0  0  0  0  0  0  0
   -4.1093    2.4298   -1.0042 O   0  0  0  0  0  0  0  0  0  0  0  0
   -3.9169    4.4302    0.0112 N   0  0  0  0  0  0  0  0  0  0  0  0
    1.9682   -0.1640    1.6227 C   0  0  2  0  0  0  0  0  0  0  0  0
    1.6755    0.6741    2.7612 O   0  0  0  0  0  0  0  0  0  0  0  0
    2.6223    0.7296    0.5576 C   0  0  0  0  0  0  0  0  0  0  0  0
    3.6698    1.5089    1.2369 N   0  0  0  0  0  0  0  0  0  0  0  0
    4.5053    2.6819    0.3908 S   0  0  0  0  0  0  0  0  0  0  0  0
    5.1180    3.5115    1.4087 O   0  0  0  0  0  0  0  0  0  0  0  0
    3.6113    3.2316   -0.5989 O   0  0  0  0  0  0  0  0  0  0  0  0
    5.7945    1.8043   -0.4355 C   0  0  0  0  0  0  0  0  0  0  0  0
    7.0580    1.7313    0.1483 C   0  0  0  0  0  0  0  0  0  0  0  0
    8.0874    1.0620   -0.5132 C   0  0  0  0  0  0  0  0  0  0  0  0
    7.8552    0.4888   -1.7650 C   0  0  0  0  0  0  0  0  0  0  0  0
    6.5958    0.5898   -2.3603 C   0  0  0  0  0  0  0  0  0  0  0  0
    5.5648    1.2598   -1.6992 C   0  0  0  0  0  0  0  0  0  0  0  0
    0.2944   -1.4283    2.0175 H   0  0  0  0  0  0  0  0  0  0  0  0
    1.7030   -2.6907    0.4416 H   0  0  0  0  0  0  0  0  0  0  0  0
    1.5249   -1.4457   -0.7974 H   0  0  0  0  0  0  0  0  0  0  0  0
   -0.2903   -1.5804   -2.3589 H   0  0  0  0  0  0  0  0  0  0  0  0
   -2.5314   -2.4015   -2.9874 H   0  0  0  0  0  0  0  0  0  0  0  0
   -2.7909   -4.5592    0.7079 H   0  0  0  0  0  0  0  0  0  0  0  0
   -0.5321   -3.7541    1.3445 H   0  0  0  0  0  0  0  0  0  0  0  0
   -4.7699   -2.2180   -2.5216 H   0  0  0  0  0  0  0  0  0  0  0  0
   -5.9699   -3.3959   -1.9832 H   0  0  0  0  0  0  0  0  0  0  0  0
   -5.5033   -2.6210    0.4318 H   0  0  0  0  0  0  0  0  0  0  0  0
   -6.4143   -1.5260   -0.6080 H   0  0  0  0  0  0  0  0  0  0  0  0
   -3.4059   -1.2248   -0.2093 H   0  0  0  0  0  0  0  0  0  0  0  0
   -4.5100   -0.0896   -0.9810 H   0  0  0  0  0  0  0  0  0  0  0  0
   -3.7600    0.9923    2.5362 H   0  0  0  0  0  0  0  0  0  0  0  0
   -2.5525    0.7364   -0.1932 H   0  0  0  0  0  0  0  0  0  0  0  0
   -0.5779   -0.0416   -0.3080 H   0  0  0  0  0  0  0  0  0  0  0  0
   -2.5059    3.0972    1.7298 H   0  0  0  0  0  0  0  0  0  0  0  0
   -1.4836    2.9542    0.2864 H   0  0  0  0  0  0  0  0  0  0  0  0
   -3.4143    5.0634    0.6173 H   0  0  0  0  0  0  0  0  0  0  0  0
   -4.6216    4.8176   -0.6081 H   0  0  0  0  0  0  0  0  0  0  0  0
    2.7011   -0.9031    1.9668 H   0  0  0  0  0  0  0  0  0  0  0  0
    0.7063    0.6424    2.9198 H   0  0  0  0  0  0  0  0  0  0  0  0
    1.8702    1.4099    0.1446 H   0  0  0  0  0  0  0  0  0  0  0  0
    3.0694    0.1419   -0.2426 H   0  0  0  0  0  0  0  0  0  0  0  0
    3.3239    1.8998    2.1234 H   0  0  0  0  0  0  0  0  0  0  0  0
    7.2301    2.1924    1.1178 H   0  0  0  0  0  0  0  0  0  0  0  0
    9.0686    0.9903   -0.0508 H   0  0  0  0  0  0  0  0  0  0  0  0
    8.6593   -0.0329   -2.2795 H   0  0  0  0  0  0  0  0  0  0  0  0
    6.4181    0.1494   -3.3384 H   0  0  0  0  0  0  0  0  0  0  0  0
    4.5859    1.3555   -2.1596 H   0  0  0  0  0  0  0  0  0  0  0  0
  1 24  1  0  0  0  0
  1 37  1  1  0  0  0
  2 38  1  0  0  0  0
  2  1  1  0  0  0  0
  3  2  1  0  0  0  0
  3  8  2  0  0  0  0
  4  3  1  0  0  0  0
  5  4  2  0  0  0  0
  5  6  1  0  0  0  0
  6  7  2  0  0  0  0
  7  8  1  0  0  0  0
  7 42  1  0  0  0  0
  8 43  1  0  0  0  0
  9  6  1  0  0  0  0
 10  9  1  0  0  0  0
 10 11  1  0  0  0  0
 11 12  1  0  0  0  0
 11 46  1  0  0  0  0
 12 13  1  0  0  0  0
 13 15  1  0  0  0  0
 13 14  2  0  0  0  0
 15 50  1  0  0  0  0
 16 51  1  6  0  0  0
 16 17  1  0  0  0  0
 16 15  1  0  0  0  0
 17 18  2  0  0  0  0
 19  1  1  0  0  0  0
 19 17  1  0  0  0  0
 20 16  1  0  0  0  0
 20 53  1  0  0  0  0
 21 23  1  0  0  0  0
 21 20  1  0  0  0  0
 22 21  2  0  0  0  0
 23 55  1  0  0  0  0
 24 57  1  1  0  0  0
 24 25  1  0  0  0  0
 25 58  1  0  0  0  0
 26 27  1  0  0  0  0
 26 24  1  0  0  0  0
 27 61  1  0  0  0  0
 28 27  1  0  0  0  0
 28 29  2  0  0  0  0
 30 28  2  0  0  0  0
 31 32  1  0  0  0  0
 31 28  1  0  0  0  0
 32 62  1  0  0  0  0
 33 63  1  0  0  0  0
 33 32  2  0  0  0  0
 34 33  1  0  0  0  0
 35 34  2  0  0  0  0
 35 36  1  0  0  0  0
 36 31  2  0  0  0  0
 39  2  1  0  0  0  0
 40  4  1  0  0  0  0
 41  5  1  0  0  0  0
 44 10  1  0  0  0  0
 45 10  1  0  0  0  0
 47 11  1  0  0  0  0
 48 12  1  0  0  0  0
 49 12  1  0  0  0  0
 52 19  1  0  0  0  0
 54 20  1  0  0  0  0
 56 23  1  0  0  0  0
 59 26  1  0  0  0  0
 60 26  1  0  0  0  0
 64 34  1  0  0  0  0
 65 35  1  0  0  0  0
 66 36  1  0  0  0  0
M  END
