117.587
 OpenBabel10231816213D

 34 35  0  0  1  0  0  0  0  0999 V2000
   -0.9319   -0.4153   -0.6350 C   0  0  1  0  0  0  0  0  0  0  0  0
   -0.1800    0.3610   -1.6303 N   0  0  0  0  0  0  0  0  0  0  0  0
    1.1635   -0.1502   -1.9007 C   0  0  0  0  0  0  0  0  0  0  0  0
    2.1741    0.0257   -0.7895 C   0  0  0  0  0  0  0  0  0  0  0  0
    2.7539   -1.0910   -0.1757 C   0  0  0  0  0  0  0  0  0  0  0  0
    3.7210   -0.9432    0.8213 C   0  0  0  0  0  0  0  0  0  0  0  0
    4.1322    0.3356    1.2083 C   0  0  0  0  0  0  0  0  0  0  0  0
    3.5681    1.4521    0.6070 C   0  0  0  0  0  0  0  0  0  0  0  0
    2.5970    1.3045   -0.3889 C   0  0  0  0  0  0  0  0  0  0  0  0
   -0.7551    0.0693    0.8215 C   0  0  1  0  0  0  0  0  0  0  0  0
   -0.6718    1.5098    0.8168 O   0  0  0  0  0  0  0  0  0  0  0  0
   -2.0429   -0.3688    1.5548 C   0  0  1  0  0  0  0  0  0  0  0  0
   -2.5717    0.7529    2.2802 O   0  0  0  0  0  0  0  0  0  0  0  0
   -3.0258   -0.8145    0.4513 C   0  0  1  0  0  0  0  0  0  0  0  0
   -4.3380   -0.3380    0.7502 O   0  0  0  0  0  0  0  0  0  0  0  0
   -2.4474   -0.1910   -0.8150 C   0  0  2  0  0  0  0  0  0  0  0  0
   -3.1368   -0.9357   -2.3250 S   0  0  0  0  0  0  0  0  0  0  0  0
   -0.7143   -1.4920   -0.7059 H   0  0  0  0  0  0  0  0  0  0  0  0
   -0.1042    1.3167   -1.2628 H   0  0  0  0  0  0  0  0  0  0  0  0
    1.1041   -1.2015   -2.2025 H   0  0  0  0  0  0  0  0  0  0  0  0
    1.5473    0.3795   -2.7831 H   0  0  0  0  0  0  0  0  0  0  0  0
    2.4538   -2.0963   -0.4710 H   0  0  0  0  0  0  0  0  0  0  0  0
    4.1673   -1.8208    1.2830 H   0  0  0  0  0  0  0  0  0  0  0  0
    4.8931    0.4495    1.9778 H   0  0  0  0  0  0  0  0  0  0  0  0
    3.8862    2.4487    0.9078 H   0  0  0  0  0  0  0  0  0  0  0  0
    2.1705    2.1905   -0.8520 H   0  0  0  0  0  0  0  0  0  0  0  0
    0.1445   -0.3266    1.2991 H   0  0  0  0  0  0  0  0  0  0  0  0
   -1.2902    1.7961    1.5247 H   0  0  0  0  0  0  0  0  0  0  0  0
   -1.8562   -1.1902    2.2573 H   0  0  0  0  0  0  0  0  0  0  0  0
   -3.5302    0.7613    2.0590 H   0  0  0  0  0  0  0  0  0  0  0  0
   -3.0419   -1.9120    0.3938 H   0  0  0  0  0  0  0  0  0  0  0  0
   -4.8593   -0.4335   -0.0710 H   0  0  0  0  0  0  0  0  0  0  0  0
   -2.6945    0.8787   -0.8489 H   0  0  0  0  0  0  0  0  0  0  0  0
   -2.2842   -0.3114   -3.1565 H   0  0  0  0  0  0  0  0  0  0  0  0
  1 18  1  6  0  0  0
  1 10  1  0  0  0  0
  2 19  1  0  0  0  0
  2  1  1  0  0  0  0
  3  2  1  0  0  0  0
  3  4  1  0  0  0  0
  4  9  2  0  0  0  0
  4  5  1  0  0  0  0
  5  6  2  0  0  0  0
  6  7  1  0  0  0  0
  6 23  1  0  0  0  0
  7 24  1  0  0  0  0
  8 25  1  0  0  0  0
  8  7  2  0  0  0  0
  9  8  1  0  0  0  0
 10 27  1  1  0  0  0
 10 12  1  0  0  0  0
 11 10  1  0  0  0  0
 11 28  1  0  0  0  0
 12 29  1  1  0  0  0
 12 13  1  0  0  0  0
 14 31  1  6  0  0  0
 14 15  1  0  0  0  0
 14 12  1  0  0  0  0
 16 33  1  6  0  0  0
 16  1  1  0  0  0  0
 16 14  1  0  0  0  0
 17 16  1  0  0  0  0
 20  3  1  0  0  0  0
 21  3  1  0  0  0  0
 22  5  1  0  0  0  0
 26  9  1  0  0  0  0
 30 13  1  0  0  0  0
 32 15  1  0  0  0  0
 34 17  1  0  0  0  0
M  END
