49.381
 OpenBabel10231816213D

 25 25  0  0  1  0  0  0  0  0999 V2000
   -0.1972   -2.5625   -1.5103 O   0  0  0  0  0  0  0  0  0  0  0  0
   -1.4971   -2.1762   -1.5322 C   0  0  0  0  0  0  0  0  0  0  0  0
   -2.2828   -2.8068   -2.2320 O   0  0  0  0  0  0  0  0  0  0  0  0
   -1.8087   -1.0102   -0.7106 C   0  0  0  0  0  0  0  0  0  0  0  0
   -3.0401   -0.4686   -0.7596 N   0  0  0  0  0  0  0  0  0  0  0  0
   -3.0276    0.6194    0.0845 O   0  0  0  0  0  0  0  0  0  0  0  0
   -1.8039    0.7352    0.6515 C   0  0  0  0  0  0  0  0  0  0  0  0
   -0.9789   -0.2647    0.1879 C   0  0  0  0  0  0  0  0  0  0  0  0
    0.4618   -0.4290    0.5485 C   0  0  0  0  0  0  0  0  0  0  0  0
    1.3492    0.6403   -0.1144 C   0  0  2  0  0  0  0  0  0  0  0  0
    1.3422    0.5796   -1.5924 N   0  0  0  0  0  0  0  0  0  0  0  0
    2.7723    0.4661    0.4051 C   0  0  0  0  0  0  0  0  0  0  0  0
    3.7102   -0.0495   -0.1837 O   0  0  0  0  0  0  0  0  0  0  0  0
    2.9152    0.8992    1.6743 O   0  0  0  0  0  0  0  0  0  0  0  0
   -1.6011    1.8694    1.5713 C   0  0  0  0  0  0  0  0  0  0  0  0
   -0.1910   -3.3405   -2.1072 H   0  0  0  0  0  0  0  0  0  0  0  0
    0.8292   -1.4338    0.3174 H   0  0  0  0  0  0  0  0  0  0  0  0
    0.5514   -0.3449    1.6396 H   0  0  0  0  0  0  0  0  0  0  0  0
    1.0138    1.6473    0.1656 H   0  0  0  0  0  0  0  0  0  0  0  0
    1.8581   -0.2526   -1.8855 H   0  0  0  0  0  0  0  0  0  0  0  0
    0.3895    0.4693   -1.9349 H   0  0  0  0  0  0  0  0  0  0  0  0
    3.8565    0.7189    1.8806 H   0  0  0  0  0  0  0  0  0  0  0  0
   -0.6881    1.7280    2.1602 H   0  0  0  0  0  0  0  0  0  0  0  0
   -2.4377    1.9647    2.2675 H   0  0  0  0  0  0  0  0  0  0  0  0
   -1.4951    2.8017    1.0089 H   0  0  0  0  0  0  0  0  0  0  0  0
  2  1  1  0  0  0  0
  2  4  1  0  0  0  0
  3  2  2  0  0  0  0
  4  8  1  0  0  0  0
  5  4  2  0  0  0  0
  5  6  1  0  0  0  0
  6  7  1  0  0  0  0
  7 15  1  0  0  0  0
  8  9  1  0  0  0  0
  8  7  2  0  0  0  0
  9 18  1  0  0  0  0
 10 19  1  1  0  0  0
 10 12  1  0  0  0  0
 10  9  1  0  0  0  0
 11 10  1  0  0  0  0
 12 14  1  0  0  0  0
 13 12  2  0  0  0  0
 14 22  1  0  0  0  0
 15 23  1  0  0  0  0
 15 24  1  0  0  0  0
 16  1  1  0  0  0  0
 17  9  1  0  0  0  0
 20 11  1  0  0  0  0
 21 11  1  0  0  0  0
 25 15  1  0  0  0  0
M  END
