52.5442
 OpenBabel10231816213D

 36 36  0  0  1  0  0  0  0  0999 V2000
    4.9053    1.4780    0.5386 C   0  0  0  0  0  0  0  0  0  0  0  0
    4.6349    0.7269   -0.7313 C   0  0  0  0  0  0  0  0  0  0  0  0
    4.0719    0.2274    0.5659 C   0  0  0  0  0  0  0  0  0  0  0  0
    2.6624    0.3233    0.8741 N   0  0  0  0  0  0  0  0  0  0  0  0
    1.7917   -0.2800   -0.1546 C   0  0  0  0  0  0  0  0  0  0  0  0
    0.3693   -0.3190    0.4371 C   0  0  0  0  0  0  0  0  0  0  0  0
   -0.5693   -1.1865   -0.4463 C   0  0  1  0  0  0  0  0  0  0  0  0
   -0.0561   -2.5821   -0.3816 N   0  0  0  0  0  0  0  0  0  0  0  0
   -2.0384   -1.1164    0.0073 C   0  0  0  0  0  0  0  0  0  0  0  0
   -2.7958    0.0723   -0.6251 C   0  0  0  0  0  0  0  0  0  0  0  0
   -4.2014    0.2402   -0.0343 C   0  0  0  0  0  0  0  0  0  0  0  0
   -4.9730    1.3958   -0.6697 C   0  0  0  0  0  0  0  0  0  0  0  0
   -0.0757    1.0177    0.5606 O   0  0  0  0  0  0  0  0  0  0  0  0
    0.4193   -0.8592    1.7632 O   0  0  0  0  0  0  0  0  0  0  0  0
    5.8944    1.4231    0.9726 H   0  0  0  0  0  0  0  0  0  0  0  0
    4.4153    2.4367    0.6725 H   0  0  0  0  0  0  0  0  0  0  0  0
    5.4302    0.1430   -1.1732 H   0  0  0  0  0  0  0  0  0  0  0  0
    3.9587    1.1722   -1.4547 H   0  0  0  0  0  0  0  0  0  0  0  0
    4.5450   -0.6462    1.0051 H   0  0  0  0  0  0  0  0  0  0  0  0
    2.3359    1.2822    1.0375 H   0  0  0  0  0  0  0  0  0  0  0  0
    2.1524   -1.2870   -0.3876 H   0  0  0  0  0  0  0  0  0  0  0  0
    1.7831    0.3192   -1.0692 H   0  0  0  0  0  0  0  0  0  0  0  0
   -0.4990   -0.8539   -1.4864 H   0  0  0  0  0  0  0  0  0  0  0  0
   -0.0055   -2.8626    0.6023 H   0  0  0  0  0  0  0  0  0  0  0  0
   -0.6959   -3.2259   -0.8536 H   0  0  0  0  0  0  0  0  0  0  0  0
   -2.5681   -2.0358   -0.2798 H   0  0  0  0  0  0  0  0  0  0  0  0
   -2.1002   -1.0553    1.1020 H   0  0  0  0  0  0  0  0  0  0  0  0
   -2.8724   -0.0906   -1.7076 H   0  0  0  0  0  0  0  0  0  0  0  0
   -2.2417    1.0070   -0.4920 H   0  0  0  0  0  0  0  0  0  0  0  0
   -4.1243    0.4167    1.0446 H   0  0  0  0  0  0  0  0  0  0  0  0
   -4.7694   -0.6861   -0.1690 H   0  0  0  0  0  0  0  0  0  0  0  0
   -5.9660    1.4937   -0.2152 H   0  0  0  0  0  0  0  0  0  0  0  0
   -5.1148    1.2376   -1.7436 H   0  0  0  0  0  0  0  0  0  0  0  0
   -4.4508    2.3482   -0.5322 H   0  0  0  0  0  0  0  0  0  0  0  0
   -0.5967    1.0014    1.3835 H   0  0  0  0  0  0  0  0  0  0  0  0
    1.3448   -0.6762    2.0404 H   0  0  0  0  0  0  0  0  0  0  0  0
  1  3  1  0  0  0  0
  1 16  1  0  0  0  0
  1 15  1  0  0  0  0
  2  1  1  0  0  0  0
  2  3  1  0  0  0  0
  3  4  1  0  0  0  0
  3 19  1  0  0  0  0
  4 20  1  0  0  0  0
  5  6  1  0  0  0  0
  5  4  1  0  0  0  0
  6 13  1  0  0  0  0
  6 14  1  0  0  0  0
  7 23  1  6  0  0  0
  7  8  1  0  0  0  0
  7  9  1  0  0  0  0
  7  6  1  0  0  0  0
  8 24  1  0  0  0  0
  9 27  1  0  0  0  0
 10 29  1  0  0  0  0
 10 11  1  0  0  0  0
 10  9  1  0  0  0  0
 11 30  1  0  0  0  0
 12 34  1  0  0  0  0
 12 32  1  0  0  0  0
 12 11  1  0  0  0  0
 13 35  1  0  0  0  0
 14 36  1  0  0  0  0
 17  2  1  0  0  0  0
 18  2  1  0  0  0  0
 21  5  1  0  0  0  0
 22  5  1  0  0  0  0
 25  8  1  0  0  0  0
 26  9  1  0  0  0  0
 28 10  1  0  0  0  0
 31 11  1  0  0  0  0
 33 12  1  0  0  0  0
M  END
