-1.52441
 OpenBabel10231816213D

 39 41  0  0  1  0  0  0  0  0999 V2000
   -3.2979   -1.7034   -1.2175 N   0  0  0  0  0  0  0  0  0  0  0  0
   -2.1092   -1.5675   -1.8278 C   0  0  0  0  0  0  0  0  0  0  0  0
   -1.0944   -0.7533   -1.4518 N   0  0  0  0  0  0  0  0  0  0  0  0
   -1.2189    0.0200   -0.3411 C   0  0  0  0  0  0  0  0  0  0  0  0
   -2.4212   -0.0643    0.3713 C   0  0  0  0  0  0  0  0  0  0  0  0
   -3.3790   -0.9247   -0.1327 C   0  0  0  0  0  0  0  0  0  0  0  0
   -4.4666   -0.8486    0.6863 O   0  0  0  0  0  0  0  0  0  0  0  0
   -4.1020    0.0600    1.6435 C   0  0  0  0  0  0  0  0  0  0  0  0
   -2.8895    0.5619    1.5090 N   0  0  0  0  0  0  0  0  0  0  0  0
   -5.1108    0.3443    2.6837 C   0  0  0  0  0  0  0  0  0  0  0  0
   -0.2037    0.8753    0.0418 N   0  0  0  0  0  0  0  0  0  0  0  0
    1.0950    0.8528   -0.6043 C   0  0  1  0  0  0  0  0  0  0  0  0
    1.4389    2.2789   -1.0384 C   0  0  0  0  0  0  0  0  0  0  0  0
    2.7370    2.5217   -1.7709 C   0  0  0  0  0  0  0  0  0  0  0  0
    3.0345    3.6460   -2.1630 O   0  0  0  0  0  0  0  0  0  0  0  0
    3.5670    1.4900   -1.9961 O   0  0  0  0  0  0  0  0  0  0  0  0
    2.1013    0.2071    0.3366 C   0  0  0  0  0  0  0  0  0  0  0  0
    2.4152   -1.1565    0.1736 C   0  0  0  0  0  0  0  0  0  0  0  0
    3.3951   -1.7630    0.9608 C   0  0  0  0  0  0  0  0  0  0  0  0
    4.0643   -1.0226    1.9317 C   0  0  0  0  0  0  0  0  0  0  0  0
    3.7499    0.3207    2.1211 C   0  0  0  0  0  0  0  0  0  0  0  0
    2.7711    0.9309    1.3347 C   0  0  0  0  0  0  0  0  0  0  0  0
   -1.8859   -2.3771   -3.0696 C   0  0  0  0  0  0  0  0  0  0  0  0
   -4.7315    1.0808    3.3984 H   0  0  0  0  0  0  0  0  0  0  0  0
   -5.3604   -0.5692    3.2312 H   0  0  0  0  0  0  0  0  0  0  0  0
   -6.0246    0.7419    2.2325 H   0  0  0  0  0  0  0  0  0  0  0  0
   -0.2956    1.2783    0.9682 H   0  0  0  0  0  0  0  0  0  0  0  0
    1.0766    0.2571   -1.5276 H   0  0  0  0  0  0  0  0  0  0  0  0
    0.6470    2.6184   -1.7224 H   0  0  0  0  0  0  0  0  0  0  0  0
    1.4182    2.9581   -0.1783 H   0  0  0  0  0  0  0  0  0  0  0  0
    3.3632    0.6241   -1.6016 H   0  0  0  0  0  0  0  0  0  0  0  0
    1.9021   -1.7526   -0.5803 H   0  0  0  0  0  0  0  0  0  0  0  0
    3.6378   -2.8131    0.8168 H   0  0  0  0  0  0  0  0  0  0  0  0
    4.8276   -1.4934    2.5464 H   0  0  0  0  0  0  0  0  0  0  0  0
    4.2721    0.8984    2.8803 H   0  0  0  0  0  0  0  0  0  0  0  0
    2.5557    1.9827    1.5076 H   0  0  0  0  0  0  0  0  0  0  0  0
   -0.8853   -2.8205   -3.0554 H   0  0  0  0  0  0  0  0  0  0  0  0
   -2.6180   -3.1847   -3.1457 H   0  0  0  0  0  0  0  0  0  0  0  0
   -1.9752   -1.7348   -3.9509 H   0  0  0  0  0  0  0  0  0  0  0  0
  1  6  2  0  0  0  0
  2  3  2  0  0  0  0
  2  1  1  0  0  0  0
  3  4  1  0  0  0  0
  4 11  1  0  0  0  0
  4  5  2  0  0  0  0
  5  9  1  0  0  0  0
  6  5  1  0  0  0  0
  6  7  1  0  0  0  0
  7  8  1  0  0  0  0
  8 10  1  0  0  0  0
  9  8  2  0  0  0  0
 10 25  1  0  0  0  0
 10 24  1  0  0  0  0
 11 27  1  0  0  0  0
 12 28  1  6  0  0  0
 12 11  1  0  0  0  0
 12 17  1  0  0  0  0
 13 12  1  0  0  0  0
 13 30  1  0  0  0  0
 14 13  1  0  0  0  0
 15 14  2  0  0  0  0
 16 14  1  0  0  0  0
 16 31  1  0  0  0  0
 17 22  1  0  0  0  0
 18 17  2  0  0  0  0
 18 19  1  0  0  0  0
 19 20  2  0  0  0  0
 20 21  1  0  0  0  0
 20 34  1  0  0  0  0
 21 35  1  0  0  0  0
 22 36  1  0  0  0  0
 22 21  2  0  0  0  0
 23 37  1  0  0  0  0
 23  2  1  0  0  0  0
 26 10  1  0  0  0  0
 29 13  1  0  0  0  0
 32 18  1  0  0  0  0
 33 19  1  0  0  0  0
 38 23  1  0  0  0  0
 39 23  1  0  0  0  0
M  END
