126.847
 OpenBabel10231816213D

 34 35  0  0  1  0  0  0  0  0999 V2000
   -1.1329   -1.0755   -0.0139 C   0  0  1  0  0  0  0  0  0  0  0  0
    0.2977   -0.9043   -0.0824 N   0  0  0  0  0  0  0  0  0  0  0  0
    0.8462    0.4424    0.1024 C   0  0  0  0  0  0  0  0  0  0  0  0
    2.3676    0.4388    0.0225 C   0  0  0  0  0  0  0  0  0  0  0  0
    3.0533   -0.5292   -0.7228 C   0  0  0  0  0  0  0  0  0  0  0  0
    4.4412   -0.5176   -0.8117 C   0  0  0  0  0  0  0  0  0  0  0  0
    5.1701    0.4764   -0.1625 C   0  0  0  0  0  0  0  0  0  0  0  0
    4.5056    1.4490    0.5792 C   0  0  0  0  0  0  0  0  0  0  0  0
    3.1060    1.4307    0.6673 C   0  0  0  0  0  0  0  0  0  0  0  0
   -1.9101   -0.6498    1.2496 C   0  0  1  0  0  0  0  0  0  0  0  0
   -1.6694    0.6871    1.6981 O   0  0  0  0  0  0  0  0  0  0  0  0
   -3.3532   -0.7245    0.7427 C   0  0  1  0  0  0  0  0  0  0  0  0
   -4.2490   -0.0029    1.5878 O   0  0  0  0  0  0  0  0  0  0  0  0
   -3.2567   -0.0540   -0.6413 C   0  0  1  0  0  0  0  0  0  0  0  0
   -3.2426    1.3748   -0.4453 O   0  0  0  0  0  0  0  0  0  0  0  0
   -1.8802   -0.4470   -1.2043 C   0  0  2  0  0  0  0  0  0  0  0  0
   -1.9488   -1.6172   -2.6070 S   0  0  0  0  0  0  0  0  0  0  0  0
   -1.2880   -2.1663   -0.0666 H   0  0  0  0  0  0  0  0  0  0  0  0
    0.7844   -1.5510    0.5412 H   0  0  0  0  0  0  0  0  0  0  0  0
    0.4651    1.1115   -0.6737 H   0  0  0  0  0  0  0  0  0  0  0  0
    0.5657    0.8540    1.0733 H   0  0  0  0  0  0  0  0  0  0  0  0
    2.4958   -1.3148   -1.2357 H   0  0  0  0  0  0  0  0  0  0  0  0
    4.9502   -1.2830   -1.3917 H   0  0  0  0  0  0  0  0  0  0  0  0
    6.2536    0.4912   -0.2346 H   0  0  0  0  0  0  0  0  0  0  0  0
    5.0673    2.2255    1.0923 H   0  0  0  0  0  0  0  0  0  0  0  0
    2.6026    2.1941    1.2513 H   0  0  0  0  0  0  0  0  0  0  0  0
   -1.7205   -1.3108    2.0985 H   0  0  0  0  0  0  0  0  0  0  0  0
   -1.9737    1.2919    0.9839 H   0  0  0  0  0  0  0  0  0  0  0  0
   -3.7006   -1.7560    0.6411 H   0  0  0  0  0  0  0  0  0  0  0  0
   -3.6787    0.4749    2.2295 H   0  0  0  0  0  0  0  0  0  0  0  0
   -4.1018   -0.2994   -1.2908 H   0  0  0  0  0  0  0  0  0  0  0  0
   -4.0444    1.5651    0.0950 H   0  0  0  0  0  0  0  0  0  0  0  0
   -1.3733    0.4515   -1.5720 H   0  0  0  0  0  0  0  0  0  0  0  0
   -2.4484   -0.7557   -3.4993 H   0  0  0  0  0  0  0  0  0  0  0  0
  1 18  1  6  0  0  0
  1 10  1  0  0  0  0
  2  1  1  0  0  0  0
  2  3  1  0  0  0  0
  2 19  1  0  0  0  0
  3 21  1  0  0  0  0
  4  3  1  0  0  0  0
  4  9  2  0  0  0  0
  5  4  1  0  0  0  0
  6  5  2  0  0  0  0
  6  7  1  0  0  0  0
  7  8  2  0  0  0  0
  8  9  1  0  0  0  0
  8 25  1  0  0  0  0
  9 26  1  0  0  0  0
 10 11  1  0  0  0  0
 10 27  1  1  0  0  0
 12 29  1  6  0  0  0
 12 10  1  0  0  0  0
 12 13  1  0  0  0  0
 13 30  1  0  0  0  0
 14 31  1  6  0  0  0
 14 15  1  0  0  0  0
 14 12  1  0  0  0  0
 15 32  1  0  0  0  0
 16 33  1  6  0  0  0
 16 14  1  0  0  0  0
 16  1  1  0  0  0  0
 17 16  1  0  0  0  0
 20  3  1  0  0  0  0
 22  5  1  0  0  0  0
 23  6  1  0  0  0  0
 24  7  1  0  0  0  0
 28 11  1  0  0  0  0
 34 17  1  0  0  0  0
M  END
