2.36681
 OpenBabel10231816213D

 45 47  0  0  0  0  0  0  0  0999 V2000
   -4.7805   -0.9716    1.3355 O   0  0  0  0  0  0  0  0  0  0  0  0
   -4.9941   -0.6123    0.0399 N   0  0  0  0  0  0  0  0  0  0  0  0
   -3.7912   -0.4074   -0.5350 C   0  0  0  0  0  0  0  0  0  0  0  0
   -2.7561   -0.5783    0.4652 C   0  0  0  0  0  0  0  0  0  0  0  0
   -1.3053   -0.4289    0.4050 C   0  0  0  0  0  0  0  0  0  0  0  0
   -0.6620   -0.7088   -0.5975 O   0  0  0  0  0  0  0  0  0  0  0  0
   -0.7323    0.0529    1.5760 N   0  0  0  0  0  0  0  0  0  0  0  0
    0.6232    0.2606    1.7652 C   0  0  0  0  0  0  0  0  0  0  0  0
    1.1584    0.7657    2.9294 C   0  0  0  0  0  0  0  0  0  0  0  0
    2.5216    0.8510    2.7766 N   0  0  0  0  0  0  0  0  0  0  0  0
    3.4304    1.3479    3.7941 C   0  0  0  0  0  0  0  0  0  0  0  0
    2.8812    0.4056    1.5215 C   0  0  0  0  0  0  0  0  0  0  0  0
    1.7031    0.0336    0.8875 C   0  0  0  0  0  0  0  0  0  0  0  0
    4.2319    0.3482    1.0109 C   0  0  0  0  0  0  0  0  0  0  0  0
    5.2341    0.6738    1.6282 O   0  0  0  0  0  0  0  0  0  0  0  0
    4.2332   -0.1181   -0.2617 O   0  0  0  0  0  0  0  0  0  0  0  0
    5.5306   -0.2029   -0.8555 C   0  0  0  0  0  0  0  0  0  0  0  0
    5.3511   -0.7480   -2.2563 C   0  0  0  0  0  0  0  0  0  0  0  0
   -3.4567   -0.9848    1.5919 C   0  0  0  0  0  0  0  0  0  0  0  0
   -3.1002   -1.4257    2.9567 C   0  0  0  0  0  0  0  0  0  0  0  0
   -3.7803   -0.0256   -1.9660 C   0  0  0  0  0  0  0  0  0  0  0  0
   -4.9855    0.3702   -2.5852 C   0  0  0  0  0  0  0  0  0  0  0  0
   -5.0373    0.7389   -3.9342 C   0  0  0  0  0  0  0  0  0  0  0  0
   -3.8816    0.7134   -4.7036 C   0  0  0  0  0  0  0  0  0  0  0  0
   -2.6849    0.3092   -4.1241 C   0  0  0  0  0  0  0  0  0  0  0  0
   -2.6407   -0.0598   -2.7734 C   0  0  0  0  0  0  0  0  0  0  0  0
   -1.3294    0.3142    2.3462 H   0  0  0  0  0  0  0  0  0  0  0  0
    0.6931    1.0780    3.8537 H   0  0  0  0  0  0  0  0  0  0  0  0
    4.1078    2.0805    3.3495 H   0  0  0  0  0  0  0  0  0  0  0  0
    2.8524    1.8356    4.5826 H   0  0  0  0  0  0  0  0  0  0  0  0
    3.9861    0.5026    4.2088 H   0  0  0  0  0  0  0  0  0  0  0  0
    1.6513   -0.3594   -0.1213 H   0  0  0  0  0  0  0  0  0  0  0  0
    5.9882    0.7929   -0.8946 H   0  0  0  0  0  0  0  0  0  0  0  0
    6.1674   -0.8754   -0.2673 H   0  0  0  0  0  0  0  0  0  0  0  0
    4.8676   -1.7302   -2.2246 H   0  0  0  0  0  0  0  0  0  0  0  0
    4.6928   -0.0934   -2.8375 H   0  0  0  0  0  0  0  0  0  0  0  0
    6.3103   -0.8396   -2.7715 H   0  0  0  0  0  0  0  0  0  0  0  0
   -3.8111   -2.1650    3.3290 H   0  0  0  0  0  0  0  0  0  0  0  0
   -2.1055   -1.8779    2.9839 H   0  0  0  0  0  0  0  0  0  0  0  0
   -3.1103   -0.5682    3.6427 H   0  0  0  0  0  0  0  0  0  0  0  0
   -5.9163    0.3905   -2.0196 H   0  0  0  0  0  0  0  0  0  0  0  0
   -5.9826    1.0418   -4.3765 H   0  0  0  0  0  0  0  0  0  0  0  0
   -3.9127    0.9981   -5.7513 H   0  0  0  0  0  0  0  0  0  0  0  0
   -1.7752    0.2701   -4.7192 H   0  0  0  0  0  0  0  0  0  0  0  0
   -1.6841   -0.3940   -2.4040 H   0  0  0  0  0  0  0  0  0  0  0  0
  1 19  1  0  0  0  0
  2  1  1  0  0  0  0
  3  2  2  0  0  0  0
  3  4  1  0  0  0  0
  4 19  2  0  0  0  0
  5  4  1  0  0  0  0
  5  7  1  0  0  0  0
  6  5  2  0  0  0  0
  7  8  1  0  0  0  0
  7 27  1  0  0  0  0
  8  9  2  0  0  0  0
  9 28  1  0  0  0  0
 10  9  1  0  0  0  0
 10 11  1  0  0  0  0
 11 31  1  0  0  0  0
 11 30  1  0  0  0  0
 12 10  1  0  0  0  0
 13 12  2  0  0  0  0
 13  8  1  0  0  0  0
 14 12  1  0  0  0  0
 14 15  2  0  0  0  0
 16 14  1  0  0  0  0
 17 34  1  0  0  0  0
 17 16  1  0  0  0  0
 18 35  1  0  0  0  0
 18 17  1  0  0  0  0
 19 20  1  0  0  0  0
 20 39  1  0  0  0  0
 20 38  1  0  0  0  0
 20 40  1  0  0  0  0
 21  3  1  0  0  0  0
 22 41  1  0  0  0  0
 22 21  1  0  0  0  0
 23 22  2  0  0  0  0
 24 25  2  0  0  0  0
 24 23  1  0  0  0  0
 25 26  1  0  0  0  0
 26 45  1  0  0  0  0
 26 21  2  0  0  0  0
 29 11  1  0  0  0  0
 32 13  1  0  0  0  0
 33 17  1  0  0  0  0
 36 18  1  0  0  0  0
 37 18  1  0  0  0  0
 42 23  1  0  0  0  0
 43 24  1  0  0  0  0
 44 25  1  0  0  0  0
M  END
