121.885
 OpenBabel10231816213D

 34 35  0  0  1  0  0  0  0  0999 V2000
   -0.8131    0.2759   -0.1758 C   0  0  1  0  0  0  0  0  0  0  0  0
   -0.2055    1.5728    0.1535 N   0  0  0  0  0  0  0  0  0  0  0  0
    0.9866    1.4890    1.0014 C   0  0  0  0  0  0  0  0  0  0  0  0
    2.1616    0.7975    0.3596 C   0  0  0  0  0  0  0  0  0  0  0  0
    2.7254   -0.3408    0.9487 C   0  0  0  0  0  0  0  0  0  0  0  0
    3.8335   -0.9714    0.3721 C   0  0  0  0  0  0  0  0  0  0  0  0
    4.3900   -0.4654   -0.8013 C   0  0  0  0  0  0  0  0  0  0  0  0
    3.8424    0.6696   -1.3949 C   0  0  0  0  0  0  0  0  0  0  0  0
    2.7412    1.3010   -0.8192 C   0  0  0  0  0  0  0  0  0  0  0  0
   -1.0533   -0.7153    0.9870 C   0  0  1  0  0  0  0  0  0  0  0  0
   -1.5909   -0.0328    2.1316 O   0  0  0  0  0  0  0  0  0  0  0  0
   -2.1078   -1.7009    0.4460 C   0  0  1  0  0  0  0  0  0  0  0  0
   -3.0625   -1.9887    1.4775 O   0  0  0  0  0  0  0  0  0  0  0  0
   -2.7685   -0.9956   -0.7546 C   0  0  1  0  0  0  0  0  0  0  0  0
   -4.1932   -1.0695   -0.6431 O   0  0  0  0  0  0  0  0  0  0  0  0
   -2.2563    0.4467   -0.6881 C   0  0  2  0  0  0  0  0  0  0  0  0
   -2.4208    1.2914   -2.2952 S   0  0  0  0  0  0  0  0  0  0  0  0
   -0.2074   -0.2250   -0.9455 H   0  0  0  0  0  0  0  0  0  0  0  0
    0.0056    2.0841   -0.6990 H   0  0  0  0  0  0  0  0  0  0  0  0
    0.7440    1.0244    1.9633 H   0  0  0  0  0  0  0  0  0  0  0  0
    1.2913    2.5125    1.2587 H   0  0  0  0  0  0  0  0  0  0  0  0
    2.3155   -0.7418    1.8715 H   0  0  0  0  0  0  0  0  0  0  0  0
    4.2655   -1.8486    0.8428 H   0  0  0  0  0  0  0  0  0  0  0  0
    5.2554   -0.9486   -1.2471 H   0  0  0  0  0  0  0  0  0  0  0  0
    4.2794    1.0723   -2.3057 H   0  0  0  0  0  0  0  0  0  0  0  0
    2.3384    2.1938   -1.2848 H   0  0  0  0  0  0  0  0  0  0  0  0
   -0.1443   -1.2350    1.3017 H   0  0  0  0  0  0  0  0  0  0  0  0
   -2.2983   -0.6205    2.4710 H   0  0  0  0  0  0  0  0  0  0  0  0
   -1.6419   -2.6379    0.1213 H   0  0  0  0  0  0  0  0  0  0  0  0
   -3.9367   -1.8235    1.0583 H   0  0  0  0  0  0  0  0  0  0  0  0
   -2.4593   -1.4938   -1.6822 H   0  0  0  0  0  0  0  0  0  0  0  0
   -4.5556   -0.4151   -1.2712 H   0  0  0  0  0  0  0  0  0  0  0  0
   -2.8641    1.0191    0.0241 H   0  0  0  0  0  0  0  0  0  0  0  0
   -2.5961    2.5202   -1.7824 H   0  0  0  0  0  0  0  0  0  0  0  0
  1 18  1  6  0  0  0
  1  2  1  0  0  0  0
  1 10  1  0  0  0  0
  2  3  1  0  0  0  0
  3 21  1  0  0  0  0
  3 20  1  0  0  0  0
  4  5  2  0  0  0  0
  4  3  1  0  0  0  0
  5 22  1  0  0  0  0
  6 23  1  0  0  0  0
  6  5  1  0  0  0  0
  7  6  2  0  0  0  0
  8  9  2  0  0  0  0
  8  7  1  0  0  0  0
  9  4  1  0  0  0  0
 10 27  1  1  0  0  0
 10 11  1  0  0  0  0
 11 28  1  0  0  0  0
 12 29  1  6  0  0  0
 12 10  1  0  0  0  0
 12 13  1  0  0  0  0
 14 31  1  6  0  0  0
 14 16  1  0  0  0  0
 14 15  1  0  0  0  0
 14 12  1  0  0  0  0
 16  1  1  0  0  0  0
 16 33  1  1  0  0  0
 17 34  1  0  0  0  0
 17 16  1  0  0  0  0
 19  2  1  0  0  0  0
 24  7  1  0  0  0  0
 25  8  1  0  0  0  0
 26  9  1  0  0  0  0
 30 13  1  0  0  0  0
 32 15  1  0  0  0  0
M  END
