39.0459
 OpenBabel10231816213D

 25 25  0  0  1  0  0  0  0  0999 V2000
   -1.0071   -3.7195   -0.7011 O   0  0  0  0  0  0  0  0  0  0  0  0
   -0.3908   -2.5159   -0.7042 C   0  0  0  0  0  0  0  0  0  0  0  0
    0.8056   -2.3978   -0.9923 O   0  0  0  0  0  0  0  0  0  0  0  0
   -1.2283   -1.3810   -0.3290 C   0  0  0  0  0  0  0  0  0  0  0  0
   -2.4939   -1.5691    0.0778 N   0  0  0  0  0  0  0  0  0  0  0  0
   -2.9768   -0.3065    0.3993 O   0  0  0  0  0  0  0  0  0  0  0  0
   -2.0071    0.6232    0.1779 C   0  0  0  0  0  0  0  0  0  0  0  0
   -0.8799   -0.0003   -0.3068 C   0  0  0  0  0  0  0  0  0  0  0  0
    0.4353    0.6027   -0.6636 C   0  0  0  0  0  0  0  0  0  0  0  0
    1.4914    0.2940    0.3953 C   0  0  2  0  0  0  0  0  0  0  0  0
    1.4231    1.2987    1.4819 N   0  0  0  0  0  0  0  0  0  0  0  0
    2.8674    0.2535   -0.2655 C   0  0  0  0  0  0  0  0  0  0  0  0
    3.6987    1.1464   -0.1590 O   0  0  0  0  0  0  0  0  0  0  0  0
    3.0942   -0.8400   -1.0155 O   0  0  0  0  0  0  0  0  0  0  0  0
   -2.3255    2.0319    0.4847 C   0  0  0  0  0  0  0  0  0  0  0  0
   -1.9430   -3.6036   -0.4213 H   0  0  0  0  0  0  0  0  0  0  0  0
    0.7491    0.2171   -1.6415 H   0  0  0  0  0  0  0  0  0  0  0  0
    0.3428    1.6892   -0.7798 H   0  0  0  0  0  0  0  0  0  0  0  0
    1.3110   -0.6775    0.8617 H   0  0  0  0  0  0  0  0  0  0  0  0
    1.8875    2.1493    1.1450 H   0  0  0  0  0  0  0  0  0  0  0  0
    2.0037    0.9787    2.2591 H   0  0  0  0  0  0  0  0  0  0  0  0
    2.3479   -1.4872   -0.9861 H   0  0  0  0  0  0  0  0  0  0  0  0
   -1.4017    2.6000    0.6420 H   0  0  0  0  0  0  0  0  0  0  0  0
   -2.9389    2.1158    1.3860 H   0  0  0  0  0  0  0  0  0  0  0  0
   -2.8649    2.4979   -0.3452 H   0  0  0  0  0  0  0  0  0  0  0  0
  1 16  1  0  0  0  0
  2  1  1  0  0  0  0
  2  4  1  0  0  0  0
  3  2  2  0  0  0  0
  4  8  1  0  0  0  0
  4  5  2  0  0  0  0
  5  6  1  0  0  0  0
  7  6  1  0  0  0  0
  7 15  1  0  0  0  0
  8  7  2  0  0  0  0
  9  8  1  0  0  0  0
  9 10  1  0  0  0  0
 10 19  1  1  0  0  0
 10 11  1  0  0  0  0
 11 21  1  0  0  0  0
 12 13  2  0  0  0  0
 12 10  1  0  0  0  0
 14 22  1  0  0  0  0
 14 12  1  0  0  0  0
 15 23  1  0  0  0  0
 15 24  1  0  0  0  0
 17  9  1  0  0  0  0
 18  9  1  0  0  0  0
 20 11  1  0  0  0  0
 25 15  1  0  0  0  0
M  END
