55.3446
 OpenBabel10231816213D

 57 60  0  0  1  0  0  0  0  0999 V2000
   -1.9479   -2.0328   -0.0387 C   0  0  0  0  0  0  0  0  0  0  0  0
   -2.8561   -0.8733   -0.5061 C   0  0  1  0  0  0  0  0  0  0  0  0
   -3.0664   -1.0034   -2.0323 C   0  0  0  0  0  0  0  0  0  0  0  0
   -2.3590   -0.6392   -2.9517 O   0  0  0  0  0  0  0  0  0  0  0  0
   -4.2401   -1.7030   -2.2124 N   0  0  0  0  0  0  0  0  0  0  0  0
   -4.8940   -2.0306   -0.9922 C   0  0  0  0  0  0  0  0  0  0  0  0
   -4.2478   -1.1807    0.0186 N   0  0  0  0  0  0  0  0  0  0  0  0
   -5.0313   -0.1083    0.4683 C   0  0  0  0  0  0  0  0  0  0  0  0
   -5.8929    0.6295   -0.3587 C   0  0  0  0  0  0  0  0  0  0  0  0
   -6.6824    1.6651    0.1538 C   0  0  0  0  0  0  0  0  0  0  0  0
   -6.6076    1.9985    1.5023 C   0  0  0  0  0  0  0  0  0  0  0  0
   -5.7470    1.2932    2.3385 C   0  0  0  0  0  0  0  0  0  0  0  0
   -4.9741    0.2469    1.8255 C   0  0  0  0  0  0  0  0  0  0  0  0
   -2.2377    0.4848   -0.1346 C   0  0  0  0  0  0  0  0  0  0  0  0
   -0.7522    0.3649    0.2363 C   0  0  0  0  0  0  0  0  0  0  0  0
   -0.0910   -0.5263   -0.7016 N   0  0  0  0  0  0  0  0  0  0  0  0
    1.3597   -0.3780   -0.7898 C   0  0  0  0  0  0  0  0  0  0  0  0
    2.1207   -0.6257    0.5198 C   0  0  0  0  0  0  0  0  0  0  0  0
    3.6078   -0.4843    0.3503 C   0  0  0  0  0  0  0  0  0  0  0  0
    4.3019    0.6722    0.3281 C   0  0  0  0  0  0  0  0  0  0  0  0
    5.7847    0.6465    0.2135 C   0  0  0  0  0  0  0  0  0  0  0  0
    6.4700    1.6539   -0.4861 C   0  0  0  0  0  0  0  0  0  0  0  0
    7.8646    1.6443   -0.5785 C   0  0  0  0  0  0  0  0  0  0  0  0
    8.5850    0.6270    0.0305 C   0  0  0  0  0  0  0  0  0  0  0  0
    7.9399   -0.3756    0.7397 C   0  0  0  0  0  0  0  0  0  0  0  0
    6.5469   -0.3600    0.8379 C   0  0  0  0  0  0  0  0  0  0  0  0
    9.9210    0.6169   -0.0612 F   0  0  0  0  0  0  0  0  0  0  0  0
    3.6412    2.0283    0.3699 C   0  0  0  0  0  0  0  0  0  0  0  0
   -0.5423   -1.9117   -0.6268 C   0  0  0  0  0  0  0  0  0  0  0  0
   -1.8881   -2.0226    1.0602 H   0  0  0  0  0  0  0  0  0  0  0  0
   -2.3558   -3.0151   -0.3044 H   0  0  0  0  0  0  0  0  0  0  0  0
   -4.5459   -1.9657   -3.1356 H   0  0  0  0  0  0  0  0  0  0  0  0
   -5.9775   -1.9077   -1.0949 H   0  0  0  0  0  0  0  0  0  0  0  0
   -4.6927   -3.0854   -0.7769 H   0  0  0  0  0  0  0  0  0  0  0  0
   -5.9666    0.4141   -1.4203 H   0  0  0  0  0  0  0  0  0  0  0  0
   -7.3529    2.2092   -0.5057 H   0  0  0  0  0  0  0  0  0  0  0  0
   -7.2166    2.8065    1.8983 H   0  0  0  0  0  0  0  0  0  0  0  0
   -5.6786    1.5544    3.3915 H   0  0  0  0  0  0  0  0  0  0  0  0
   -4.3132   -0.2999    2.4946 H   0  0  0  0  0  0  0  0  0  0  0  0
   -2.7247    0.9673    0.7158 H   0  0  0  0  0  0  0  0  0  0  0  0
   -2.3356    1.1848   -0.9737 H   0  0  0  0  0  0  0  0  0  0  0  0
   -0.6455    0.0070    1.2689 H   0  0  0  0  0  0  0  0  0  0  0  0
   -0.3120    1.3696    0.2073 H   0  0  0  0  0  0  0  0  0  0  0  0
    1.5703    0.6374   -1.1491 H   0  0  0  0  0  0  0  0  0  0  0  0
    1.7427   -1.0417   -1.5766 H   0  0  0  0  0  0  0  0  0  0  0  0
    1.9252   -1.6384    0.8914 H   0  0  0  0  0  0  0  0  0  0  0  0
    1.7732    0.0466    1.3118 H   0  0  0  0  0  0  0  0  0  0  0  0
    4.1265   -1.4344    0.2318 H   0  0  0  0  0  0  0  0  0  0  0  0
    5.9287    2.4574   -0.9791 H   0  0  0  0  0  0  0  0  0  0  0  0
    8.3878    2.4223   -1.1224 H   0  0  0  0  0  0  0  0  0  0  0  0
    8.5204   -1.1593    1.2170 H   0  0  0  0  0  0  0  0  0  0  0  0
    6.0638   -1.1390    1.4254 H   0  0  0  0  0  0  0  0  0  0  0  0
    3.5753    2.4456   -0.6412 H   0  0  0  0  0  0  0  0  0  0  0  0
    2.6251    1.9952    0.7723 H   0  0  0  0  0  0  0  0  0  0  0  0
    4.2015    2.7252    1.0017 H   0  0  0  0  0  0  0  0  0  0  0  0
    0.1268   -2.5410   -0.0296 H   0  0  0  0  0  0  0  0  0  0  0  0
   -0.5354   -2.3311   -1.6406 H   0  0  0  0  0  0  0  0  0  0  0  0
  1 30  1  0  0  0  0
  2  3  1  6  0  0  0
  2 14  1  0  0  0  0
  2  1  1  0  0  0  0
  2  7  1  0  0  0  0
  4  3  2  0  0  0  0
  5  3  1  0  0  0  0
  5  6  1  0  0  0  0
  6 34  1  0  0  0  0
  6  7  1  0  0  0  0
  7  8  1  0  0  0  0
  8 13  2  0  0  0  0
  9 10  2  0  0  0  0
  9  8  1  0  0  0  0
 10 11  1  0  0  0  0
 11 37  1  0  0  0  0
 11 12  2  0  0  0  0
 12 38  1  0  0  0  0
 13 12  1  0  0  0  0
 13 39  1  0  0  0  0
 14 15  1  0  0  0  0
 14 40  1  0  0  0  0
 15 42  1  0  0  0  0
 16 29  1  0  0  0  0
 16 15  1  0  0  0  0
 17 16  1  0  0  0  0
 17 18  1  0  0  0  0
 18 46  1  0  0  0  0
 18 47  1  0  0  0  0
 19 18  1  0  0  0  0
 20 19  2  0  0  0  0
 20 28  1  0  0  0  0
 21 20  1  0  0  0  0
 21 26  2  0  0  0  0
 22 21  1  0  0  0  0
 23 22  2  0  0  0  0
 23 24  1  0  0  0  0
 24 25  2  0  0  0  0
 25 26  1  0  0  0  0
 25 51  1  0  0  0  0
 26 52  1  0  0  0  0
 27 24  1  0  0  0  0
 28 54  1  0  0  0  0
 28 55  1  0  0  0  0
 29  1  1  0  0  0  0
 29 56  1  0  0  0  0
 31  1  1  0  0  0  0
 32  5  1  0  0  0  0
 33  6  1  0  0  0  0
 35  9  1  0  0  0  0
 36 10  1  0  0  0  0
 41 14  1  0  0  0  0
 43 15  1  0  0  0  0
 44 17  1  0  0  0  0
 45 17  1  0  0  0  0
 48 19  1  0  0  0  0
 49 22  1  0  0  0  0
 50 23  1  0  0  0  0
 53 28  1  0  0  0  0
 57 29  1  0  0  0  0
M  END
