74.9534
 OpenBabel10231816213D

 45 47  0  0  1  0  0  0  0  0999 V2000
   -0.7102   -2.3985    0.2061 S   0  0  0  0  0  0  0  0  0  0  0  0
   -1.3985   -1.9474   -1.3030 C   0  0  0  0  0  0  0  0  0  0  0  0
   -0.4172   -1.7969   -2.2610 C   0  0  0  0  0  0  0  0  0  0  0  0
    0.8904   -2.0260   -1.7564 C   0  0  0  0  0  0  0  0  0  0  0  0
    0.8872   -2.3489   -0.4127 C   0  0  0  0  0  0  0  0  0  0  0  0
    2.0630   -2.6334    0.4852 C   0  0  1  0  0  0  0  0  0  0  0  0
    2.6733   -3.8284   -0.0051 O   0  0  0  0  0  0  0  0  0  0  0  0
    3.0599   -1.4894    0.5173 C   0  0  0  0  0  0  0  0  0  0  0  0
    4.2956   -1.5568   -0.1420 C   0  0  0  0  0  0  0  0  0  0  0  0
    5.1748   -0.4708   -0.1190 C   0  0  0  0  0  0  0  0  0  0  0  0
    4.8394    0.7010    0.5582 C   0  0  0  0  0  0  0  0  0  0  0  0
    5.7827    1.6898    0.4970 O   0  0  0  0  0  0  0  0  0  0  0  0
    5.4784    2.9000    1.1778 C   0  0  0  0  0  0  0  0  0  0  0  0
    3.6148    0.7788    1.2208 C   0  0  0  0  0  0  0  0  0  0  0  0
    2.7328   -0.3064    1.2002 C   0  0  0  0  0  0  0  0  0  0  0  0
   -2.8910   -1.7832   -1.4401 C   0  0  2  0  0  0  0  0  0  0  0  0
   -3.1885   -1.6595   -2.8345 O   0  0  0  0  0  0  0  0  0  0  0  0
   -3.4365   -0.5829   -0.6911 C   0  0  0  0  0  0  0  0  0  0  0  0
   -3.2194    0.7248   -1.1522 C   0  0  0  0  0  0  0  0  0  0  0  0
   -3.6816    1.8295   -0.4281 C   0  0  0  0  0  0  0  0  0  0  0  0
   -4.3682    1.6451    0.7714 C   0  0  0  0  0  0  0  0  0  0  0  0
   -4.8595    2.6345    1.5775 O   0  0  0  0  0  0  0  0  0  0  0  0
   -4.6488    3.9724    1.1447 C   0  0  0  0  0  0  0  0  0  0  0  0
   -4.5900    0.3470    1.2370 C   0  0  0  0  0  0  0  0  0  0  0  0
   -4.1301   -0.7588    0.5169 C   0  0  0  0  0  0  0  0  0  0  0  0
   -0.6351   -1.5249   -3.2902 H   0  0  0  0  0  0  0  0  0  0  0  0
    1.7980   -1.9460   -2.3432 H   0  0  0  0  0  0  0  0  0  0  0  0
    1.7500   -2.8427    1.5154 H   0  0  0  0  0  0  0  0  0  0  0  0
    1.9799   -4.5088    0.0049 H   0  0  0  0  0  0  0  0  0  0  0  0
    4.5820   -2.4561   -0.6833 H   0  0  0  0  0  0  0  0  0  0  0  0
    6.1275   -0.5426   -0.6381 H   0  0  0  0  0  0  0  0  0  0  0  0
    5.3612    2.7279    2.2530 H   0  0  0  0  0  0  0  0  0  0  0  0
    4.5885    3.3778    0.7542 H   0  0  0  0  0  0  0  0  0  0  0  0
    6.3212    3.5834    1.0396 H   0  0  0  0  0  0  0  0  0  0  0  0
    3.3095    1.6692    1.7591 H   0  0  0  0  0  0  0  0  0  0  0  0
    1.7777   -0.2176    1.7139 H   0  0  0  0  0  0  0  0  0  0  0  0
   -3.3939   -2.6990   -1.1068 H   0  0  0  0  0  0  0  0  0  0  0  0
   -4.1252   -1.4094   -2.8925 H   0  0  0  0  0  0  0  0  0  0  0  0
   -2.6703    0.8901   -2.0772 H   0  0  0  0  0  0  0  0  0  0  0  0
   -3.4805    2.8180   -0.8260 H   0  0  0  0  0  0  0  0  0  0  0  0
   -3.5802    4.2063    1.0900 H   0  0  0  0  0  0  0  0  0  0  0  0
   -5.1442    4.1588    0.1859 H   0  0  0  0  0  0  0  0  0  0  0  0
   -5.0977    4.6398    1.8863 H   0  0  0  0  0  0  0  0  0  0  0  0
   -5.1163    0.1957    2.1764 H   0  0  0  0  0  0  0  0  0  0  0  0
   -4.3050   -1.7555    0.9138 H   0  0  0  0  0  0  0  0  0  0  0  0
  2  1  1  0  0  0  0
  3  4  1  0  0  0  0
  3  2  2  0  0  0  0
  4  5  2  0  0  0  0
  5  1  1  0  0  0  0
  5  6  1  0  0  0  0
  6  8  1  0  0  0  0
  6 28  1  1  0  0  0
  7 29  1  0  0  0  0
  7  6  1  0  0  0  0
  8 15  2  0  0  0  0
  9 10  2  0  0  0  0
  9  8  1  0  0  0  0
 10 11  1  0  0  0  0
 11 14  2  0  0  0  0
 12 11  1  0  0  0  0
 12 13  1  0  0  0  0
 13 32  1  0  0  0  0
 14 35  1  0  0  0  0
 15 14  1  0  0  0  0
 15 36  1  0  0  0  0
 16  2  1  0  0  0  0
 16 37  1  1  0  0  0
 16 18  1  0  0  0  0
 17 16  1  0  0  0  0
 18 25  1  0  0  0  0
 19 18  2  0  0  0  0
 19 20  1  0  0  0  0
 20 21  2  0  0  0  0
 21 24  1  0  0  0  0
 21 22  1  0  0  0  0
 23 22  1  0  0  0  0
 23 43  1  0  0  0  0
 24 44  1  0  0  0  0
 25 45  1  0  0  0  0
 25 24  2  0  0  0  0
 26  3  1  0  0  0  0
 27  4  1  0  0  0  0
 30  9  1  0  0  0  0
 31 10  1  0  0  0  0
 33 13  1  0  0  0  0
 34 13  1  0  0  0  0
 38 17  1  0  0  0  0
 39 19  1  0  0  0  0
 40 20  1  0  0  0  0
 41 23  1  0  0  0  0
 42 23  1  0  0  0  0
M  END
