astex_1meh_15.xyz
 OpenBabel11041815263D

 43 44  0  0  0  0  0  0  0  0999 V2000
   -3.4311    2.2305    1.2779 C   0  0  0  0  0  0  0  0  0  0  0  0
   -3.3553    2.4550    2.4679 O   0  0  0  0  0  0  0  0  0  0  0  0
   -2.6865    1.2536    0.4974 C   0  0  0  0  0  0  0  0  0  0  0  0
   -3.0697    1.3310   -0.8286 C   0  0  0  0  0  0  0  0  0  0  0  0
   -4.1178    2.4039   -0.9117 C   0  0  0  0  0  0  0  0  0  0  0  0
   -4.2710    2.8988    0.4364 O   0  0  0  0  0  0  0  0  0  0  0  0
   -2.4955    0.5168   -1.7953 C   0  0  0  0  0  0  0  0  0  0  0  0
   -2.8659    0.6011   -3.2459 C   0  0  0  0  0  0  0  0  0  0  0  0
   -1.5159   -0.3764   -1.3228 C   0  0  0  0  0  0  0  0  0  0  0  0
   -1.1073   -0.4655    0.0209 C   0  0  0  0  0  0  0  0  0  0  0  0
   -1.7067    0.3832    0.9557 C   0  0  0  0  0  0  0  0  0  0  0  0
   -1.3410    0.3508    2.2591 O   0  0  0  0  0  0  0  0  0  0  0  0
    0.0051   -1.3905    0.4337 C   0  0  0  0  0  0  0  0  0  0  0  0
    1.3277   -0.7398    0.1476 C   0  0  0  0  0  0  0  0  0  0  0  0
    2.2276   -0.3153    1.0502 C   0  0  0  0  0  0  0  0  0  0  0  0
    3.5078    0.3065    0.5607 C   0  0  0  0  0  0  0  0  0  0  0  0
    4.7452   -0.5771    0.7899 C   0  0  0  0  0  0  0  0  0  0  0  0
    5.1303   -0.7891    2.2358 C   0  0  0  0  0  0  0  0  0  0  0  0
    5.2545   -1.8639    2.7637 O   0  0  0  0  0  0  0  0  0  0  0  0
    5.3676    0.3475    2.9492 O   0  0  0  0  0  0  0  0  0  0  0  0
    2.0552   -0.4330    2.5381 C   0  0  0  0  0  0  0  0  0  0  0  0
   -0.8686   -1.1918   -2.2284 O   0  0  0  0  0  0  0  0  0  0  0  0
   -1.6187   -2.3711   -2.5171 C   0  0  0  0  0  0  0  0  0  0  0  0
   -5.0868    2.0320   -1.2439 H   0  0  0  0  0  0  0  0  0  0  0  0
   -3.8226    3.2412   -1.5445 H   0  0  0  0  0  0  0  0  0  0  0  0
   -2.0502    0.2440   -3.8699 H   0  0  0  0  0  0  0  0  0  0  0  0
   -3.7506    0.0025   -3.4693 H   0  0  0  0  0  0  0  0  0  0  0  0
   -3.0898    1.6302   -3.5247 H   0  0  0  0  0  0  0  0  0  0  0  0
   -1.8900    1.0165    2.7152 H   0  0  0  0  0  0  0  0  0  0  0  0
   -0.0649   -2.3192   -0.1324 H   0  0  0  0  0  0  0  0  0  0  0  0
   -0.0992   -1.6313    1.4884 H   0  0  0  0  0  0  0  0  0  0  0  0
    1.5433   -0.5905   -0.9059 H   0  0  0  0  0  0  0  0  0  0  0  0
    3.4296    0.4967   -0.5099 H   0  0  0  0  0  0  0  0  0  0  0  0
    3.6460    1.2829    1.0387 H   0  0  0  0  0  0  0  0  0  0  0  0
    5.6051   -0.1263    0.2876 H   0  0  0  0  0  0  0  0  0  0  0  0
    4.5806   -1.5599    0.3557 H   0  0  0  0  0  0  0  0  0  0  0  0
    5.2161    1.1104    2.3796 H   0  0  0  0  0  0  0  0  0  0  0  0
    1.0121   -0.5498    2.8167 H   0  0  0  0  0  0  0  0  0  0  0  0
    2.6186   -1.2774    2.9380 H   0  0  0  0  0  0  0  0  0  0  0  0
    2.4323    0.4620    3.0342 H   0  0  0  0  0  0  0  0  0  0  0  0
   -1.0314   -2.9497   -3.2239 H   0  0  0  0  0  0  0  0  0  0  0  0
   -2.5848   -2.1243   -2.9595 H   0  0  0  0  0  0  0  0  0  0  0  0
   -1.7832   -2.9551   -1.6095 H   0  0  0  0  0  0  0  0  0  0  0  0
  1  2  2  0  0  0  0
  3 11  1  0  0  0  0
  3  1  1  0  0  0  0
  4  3  2  0  0  0  0
  5  4  1  0  0  0  0
  5  6  1  0  0  0  0
  6  1  1  0  0  0  0
  7  9  2  0  0  0  0
  7  4  1  0  0  0  0
  8  7  1  0  0  0  0
  9 10  1  0  0  0  0
 10 13  1  0  0  0  0
 10 11  2  0  0  0  0
 11 12  1  0  0  0  0
 12 29  1  0  0  0  0
 13 31  1  0  0  0  0
 14 13  1  0  0  0  0
 14 15  2  0  0  0  0
 15 21  1  0  0  0  0
 16 17  1  0  0  0  0
 16 34  1  0  0  0  0
 16 15  1  0  0  0  0
 17 18  1  0  0  0  0
 18 19  2  0  0  0  0
 18 20  1  0  0  0  0
 21 38  1  0  0  0  0
 21 39  1  0  0  0  0
 21 40  1  0  0  0  0
 22  9  1  0  0  0  0
 23 22  1  0  0  0  0
 23 43  1  0  0  0  0
 24  5  1  0  0  0  0
 25  5  1  0  0  0  0
 26  8  1  0  0  0  0
 27  8  1  0  0  0  0
 28  8  1  0  0  0  0
 30 13  1  0  0  0  0
 32 14  1  0  0  0  0
 33 16  1  0  0  0  0
 35 17  1  0  0  0  0
 36 17  1  0  0  0  0
 37 20  1  0  0  0  0
 41 23  1  0  0  0  0
 42 23  1  0  0  0  0
M  END
