astex_1meh_08.xyz
 OpenBabel11041815263D

 43 44  0  0  0  0  0  0  0  0999 V2000
   -3.6776    1.9018    1.3574 C   0  0  0  0  0  0  0  0  0  0  0  0
   -3.8382    1.9654    2.5585 O   0  0  0  0  0  0  0  0  0  0  0  0
   -2.7423    1.0652    0.6200 C   0  0  0  0  0  0  0  0  0  0  0  0
   -2.8735    1.3060   -0.7347 C   0  0  0  0  0  0  0  0  0  0  0  0
   -3.9504    2.3429   -0.8844 C   0  0  0  0  0  0  0  0  0  0  0  0
   -4.3835    2.6460    0.4600 O   0  0  0  0  0  0  0  0  0  0  0  0
   -2.0785    0.6513   -1.6663 C   0  0  0  0  0  0  0  0  0  0  0  0
   -2.1712    0.9200   -3.1386 C   0  0  0  0  0  0  0  0  0  0  0  0
   -1.1536   -0.2619   -1.1278 C   0  0  0  0  0  0  0  0  0  0  0  0
   -1.0024   -0.5160    0.2483 C   0  0  0  0  0  0  0  0  0  0  0  0
   -1.8152    0.1775    1.1487 C   0  0  0  0  0  0  0  0  0  0  0  0
   -1.6986   -0.0142    2.4846 O   0  0  0  0  0  0  0  0  0  0  0  0
    0.0672   -1.4509    0.7444 C   0  0  0  0  0  0  0  0  0  0  0  0
    1.3939   -0.7468    0.6986 C   0  0  0  0  0  0  0  0  0  0  0  0
    2.1114   -0.3049    1.7479 C   0  0  0  0  0  0  0  0  0  0  0  0
    3.4150    0.4430    1.5797 C   0  0  0  0  0  0  0  0  0  0  0  0
    4.1148    0.3651    0.2247 C   0  0  0  0  0  0  0  0  0  0  0  0
    4.8059   -0.9528   -0.0756 C   0  0  0  0  0  0  0  0  0  0  0  0
    5.8770   -1.0244   -0.6247 O   0  0  0  0  0  0  0  0  0  0  0  0
    4.1527   -2.0763    0.3041 O   0  0  0  0  0  0  0  0  0  0  0  0
    1.6972   -0.4632    3.1811 C   0  0  0  0  0  0  0  0  0  0  0  0
   -0.2934   -0.9241   -1.9786 O   0  0  0  0  0  0  0  0  0  0  0  0
   -0.8993   -2.0727   -2.5729 C   0  0  0  0  0  0  0  0  0  0  0  0
   -3.5925    3.2675   -1.3375 H   0  0  0  0  0  0  0  0  0  0  0  0
   -4.8155    1.9849   -1.4420 H   0  0  0  0  0  0  0  0  0  0  0  0
   -2.9687    0.3371   -3.6024 H   0  0  0  0  0  0  0  0  0  0  0  0
   -2.3868    1.9719   -3.3226 H   0  0  0  0  0  0  0  0  0  0  0  0
   -1.2361    0.6682   -3.6328 H   0  0  0  0  0  0  0  0  0  0  0  0
   -2.3645    0.5642    2.9032 H   0  0  0  0  0  0  0  0  0  0  0  0
   -0.1820   -1.7800    1.7493 H   0  0  0  0  0  0  0  0  0  0  0  0
    0.1097   -2.3304    0.1019 H   0  0  0  0  0  0  0  0  0  0  0  0
    1.7532   -0.5582   -0.3069 H   0  0  0  0  0  0  0  0  0  0  0  0
    4.1045    0.1018    2.3573 H   0  0  0  0  0  0  0  0  0  0  0  0
    3.2176    1.4939    1.8102 H   0  0  0  0  0  0  0  0  0  0  0  0
    3.4149    0.5748   -0.5864 H   0  0  0  0  0  0  0  0  0  0  0  0
    4.8915    1.1231    0.1640 H   0  0  0  0  0  0  0  0  0  0  0  0
    3.2953   -1.8252    0.6886 H   0  0  0  0  0  0  0  0  0  0  0  0
    0.6740   -0.8052    3.2962 H   0  0  0  0  0  0  0  0  0  0  0  0
    2.3665   -1.1566    3.6945 H   0  0  0  0  0  0  0  0  0  0  0  0
    1.7868    0.4967    3.6928 H   0  0  0  0  0  0  0  0  0  0  0  0
   -1.2251   -2.7767   -1.8049 H   0  0  0  0  0  0  0  0  0  0  0  0
   -0.1420   -2.5360   -3.1979 H   0  0  0  0  0  0  0  0  0  0  0  0
   -1.7580   -1.7921   -3.1841 H   0  0  0  0  0  0  0  0  0  0  0  0
  1  2  2  0  0  0  0
  3 11  1  0  0  0  0
  3  1  1  0  0  0  0
  4  3  2  0  0  0  0
  5  4  1  0  0  0  0
  5  6  1  0  0  0  0
  6  1  1  0  0  0  0
  7  9  2  0  0  0  0
  7  4  1  0  0  0  0
  8  7  1  0  0  0  0
  9 10  1  0  0  0  0
 10 13  1  0  0  0  0
 10 11  2  0  0  0  0
 11 12  1  0  0  0  0
 12 29  1  0  0  0  0
 13 30  1  0  0  0  0
 14 13  1  0  0  0  0
 14 15  2  0  0  0  0
 15 21  1  0  0  0  0
 16 15  1  0  0  0  0
 16 34  1  0  0  0  0
 16 33  1  0  0  0  0
 17 16  1  0  0  0  0
 18 17  1  0  0  0  0
 18 20  1  0  0  0  0
 19 18  2  0  0  0  0
 20 37  1  0  0  0  0
 21 38  1  0  0  0  0
 21 40  1  0  0  0  0
 21 39  1  0  0  0  0
 22  9  1  0  0  0  0
 23 22  1  0  0  0  0
 23 41  1  0  0  0  0
 24  5  1  0  0  0  0
 25  5  1  0  0  0  0
 26  8  1  0  0  0  0
 27  8  1  0  0  0  0
 28  8  1  0  0  0  0
 31 13  1  0  0  0  0
 32 14  1  0  0  0  0
 35 17  1  0  0  0  0
 36 17  1  0  0  0  0
 42 23  1  0  0  0  0
 43 23  1  0  0  0  0
M  END
