astex_1n2j_12.xyz
 OpenBabel11041815263D

 22 21  0  0  1  0  0  0  0  0999 V2000
    2.7051    1.1141    0.3506 O   0  0  0  0  0  0  0  0  0  0  0  0
    2.1811    0.2405   -0.2941 C   0  0  0  0  0  0  0  0  0  0  0  0
    2.5743   -0.0722   -1.5429 O   0  0  0  0  0  0  0  0  0  0  0  0
    1.0078   -0.5961    0.2151 C   0  0  2  0  0  0  0  0  0  0  0  0
    0.8801   -1.7882   -0.5764 O   0  0  0  0  0  0  0  0  0  0  0  0
   -0.3159    0.1813    0.1422 C   0  0  0  0  0  0  0  0  0  0  0  0
   -0.2549    1.4039    1.0552 C   0  0  0  0  0  0  0  0  0  0  0  0
   -0.6182    0.6065   -1.2932 C   0  0  0  0  0  0  0  0  0  0  0  0
   -1.4100   -0.7626    0.6434 C   0  0  0  0  0  0  0  0  0  0  0  0
   -2.6370   -0.0438    0.6745 O   0  0  0  0  0  0  0  0  0  0  0  0
    2.0213   -0.8294   -1.8041 H   0  0  0  0  0  0  0  0  0  0  0  0
    1.2124   -0.8448    1.2583 H   0  0  0  0  0  0  0  0  0  0  0  0
    1.4635   -2.4558   -0.2007 H   0  0  0  0  0  0  0  0  0  0  0  0
   -0.0059    1.1159    2.0775 H   0  0  0  0  0  0  0  0  0  0  0  0
    0.4938    2.1145    0.7157 H   0  0  0  0  0  0  0  0  0  0  0  0
   -1.2290    1.8864    1.0645 H   0  0  0  0  0  0  0  0  0  0  0  0
    0.1141    1.3307   -1.6497 H   0  0  0  0  0  0  0  0  0  0  0  0
   -0.6192   -0.2507   -1.9665 H   0  0  0  0  0  0  0  0  0  0  0  0
   -1.6023    1.0678   -1.3291 H   0  0  0  0  0  0  0  0  0  0  0  0
   -1.4788   -1.6252   -0.0201 H   0  0  0  0  0  0  0  0  0  0  0  0
   -1.1413   -1.1150    1.6469 H   0  0  0  0  0  0  0  0  0  0  0  0
   -3.3410   -0.6779    0.8331 H   0  0  0  0  0  0  0  0  0  0  0  0
  2  4  1  0  0  0  0
  2  1  2  0  0  0  0
  3  2  1  0  0  0  0
  4 12  1  1  0  0  0
  5 13  1  0  0  0  0
  5  4  1  0  0  0  0
  6  4  1  0  0  0  0
  6  9  1  0  0  0  0
  6  7  1  0  0  0  0
  7 16  1  0  0  0  0
  7 14  1  0  0  0  0
  8  6  1  0  0  0  0
  9 10  1  0  0  0  0
  9 21  1  0  0  0  0
 10 22  1  0  0  0  0
 11  3  1  0  0  0  0
 15  7  1  0  0  0  0
 17  8  1  0  0  0  0
 18  8  1  0  0  0  0
 19  8  1  0  0  0  0
 20  9  1  0  0  0  0
M  END
