astex_1meh_21.xyz
 OpenBabel11041815263D

 43 44  0  0  0  0  0  0  0  0999 V2000
   -3.5790    1.6052    1.5295 C   0  0  0  0  0  0  0  0  0  0  0  0
   -3.6997    1.5656    2.7364 O   0  0  0  0  0  0  0  0  0  0  0  0
   -2.7008    0.8069    0.6873 C   0  0  0  0  0  0  0  0  0  0  0  0
   -2.8657    1.1757   -0.6349 C   0  0  0  0  0  0  0  0  0  0  0  0
   -3.9067    2.2589   -0.6525 C   0  0  0  0  0  0  0  0  0  0  0  0
   -4.2839    2.4538    0.7282 O   0  0  0  0  0  0  0  0  0  0  0  0
   -2.1270    0.5803   -1.6484 C   0  0  0  0  0  0  0  0  0  0  0  0
   -2.2577    0.9835   -3.0868 C   0  0  0  0  0  0  0  0  0  0  0  0
   -1.2212   -0.4115   -1.2276 C   0  0  0  0  0  0  0  0  0  0  0  0
   -1.0363   -0.7976    0.1128 C   0  0  0  0  0  0  0  0  0  0  0  0
   -1.7934   -0.1596    1.0995 C   0  0  0  0  0  0  0  0  0  0  0  0
   -1.6410   -0.4778    2.4069 O   0  0  0  0  0  0  0  0  0  0  0  0
    0.0119   -1.8081    0.4919 C   0  0  0  0  0  0  0  0  0  0  0  0
    1.3482   -1.1247    0.5629 C   0  0  0  0  0  0  0  0  0  0  0  0
    2.0615   -0.8603    1.6684 C   0  0  0  0  0  0  0  0  0  0  0  0
    3.3810   -0.1359    1.6104 C   0  0  0  0  0  0  0  0  0  0  0  0
    3.8527    0.2829    0.2183 C   0  0  0  0  0  0  0  0  0  0  0  0
    5.1815    0.9905    0.3206 C   0  0  0  0  0  0  0  0  0  0  0  0
    6.2505    0.4675    0.1421 O   0  0  0  0  0  0  0  0  0  0  0  0
    5.1179    2.3007    0.6939 O   0  0  0  0  0  0  0  0  0  0  0  0
    1.6542   -1.2410    3.0613 C   0  0  0  0  0  0  0  0  0  0  0  0
   -0.4175   -1.0202   -2.1695 O   0  0  0  0  0  0  0  0  0  0  0  0
   -1.0850   -2.0948   -2.8304 C   0  0  0  0  0  0  0  0  0  0  0  0
   -3.5298    3.2082   -1.0337 H   0  0  0  0  0  0  0  0  0  0  0  0
   -4.8027    1.9835   -1.2084 H   0  0  0  0  0  0  0  0  0  0  0  0
   -1.3444    0.7578   -3.6318 H   0  0  0  0  0  0  0  0  0  0  0  0
   -2.4545    2.0518   -3.1688 H   0  0  0  0  0  0  0  0  0  0  0  0
   -3.0818    0.4614   -3.5761 H   0  0  0  0  0  0  0  0  0  0  0  0
   -2.2702    0.0820    2.9003 H   0  0  0  0  0  0  0  0  0  0  0  0
   -0.2591   -2.2650    1.4397 H   0  0  0  0  0  0  0  0  0  0  0  0
    0.0518   -2.5927   -0.2631 H   0  0  0  0  0  0  0  0  0  0  0  0
    1.7254   -0.7985   -0.3987 H   0  0  0  0  0  0  0  0  0  0  0  0
    3.3147    0.7446    2.2583 H   0  0  0  0  0  0  0  0  0  0  0  0
    4.1497   -0.7703    2.0620 H   0  0  0  0  0  0  0  0  0  0  0  0
    3.1097    0.9296   -0.2522 H   0  0  0  0  0  0  0  0  0  0  0  0
    3.9943   -0.5915   -0.4115 H   0  0  0  0  0  0  0  0  0  0  0  0
    4.1920    2.5562    0.7717 H   0  0  0  0  0  0  0  0  0  0  0  0
    0.6690   -1.6927    3.1092 H   0  0  0  0  0  0  0  0  0  0  0  0
    2.3811   -1.9328    3.4915 H   0  0  0  0  0  0  0  0  0  0  0  0
    1.6419   -0.3564    3.7007 H   0  0  0  0  0  0  0  0  0  0  0  0
   -0.3769   -2.5134   -3.5393 H   0  0  0  0  0  0  0  0  0  0  0  0
   -1.9694   -1.7408   -3.3620 H   0  0  0  0  0  0  0  0  0  0  0  0
   -1.3853   -2.8611   -2.1131 H   0  0  0  0  0  0  0  0  0  0  0  0
  1  2  2  0  0  0  0
  3 11  1  0  0  0  0
  3  1  1  0  0  0  0
  4  3  2  0  0  0  0
  5  4  1  0  0  0  0
  5  6  1  0  0  0  0
  6  1  1  0  0  0  0
  7  9  2  0  0  0  0
  7  4  1  0  0  0  0
  8  7  1  0  0  0  0
  9 10  1  0  0  0  0
 10 13  1  0  0  0  0
 10 11  2  0  0  0  0
 11 12  1  0  0  0  0
 12 29  1  0  0  0  0
 13 14  1  0  0  0  0
 13 30  1  0  0  0  0
 14 15  2  0  0  0  0
 15 21  1  0  0  0  0
 16 15  1  0  0  0  0
 16 34  1  0  0  0  0
 16 33  1  0  0  0  0
 17 18  1  0  0  0  0
 17 16  1  0  0  0  0
 18 20  1  0  0  0  0
 19 18  2  0  0  0  0
 20 37  1  0  0  0  0
 21 38  1  0  0  0  0
 21 39  1  0  0  0  0
 21 40  1  0  0  0  0
 22  9  1  0  0  0  0
 23 22  1  0  0  0  0
 23 43  1  0  0  0  0
 24  5  1  0  0  0  0
 25  5  1  0  0  0  0
 26  8  1  0  0  0  0
 27  8  1  0  0  0  0
 28  8  1  0  0  0  0
 31 13  1  0  0  0  0
 32 14  1  0  0  0  0
 35 17  1  0  0  0  0
 36 17  1  0  0  0  0
 41 23  1  0  0  0  0
 42 23  1  0  0  0  0
M  END
