astex_1n2j_19.xyz
 OpenBabel11041815263D

 22 21  0  0  1  0  0  0  0  0999 V2000
    2.3869   -0.1092   -1.7937 O   0  0  0  0  0  0  0  0  0  0  0  0
    2.0348    0.1260   -0.6631 C   0  0  0  0  0  0  0  0  0  0  0  0
    2.5247    1.1941    0.0027 O   0  0  0  0  0  0  0  0  0  0  0  0
    1.0267   -0.7518    0.0640 C   0  0  2  0  0  0  0  0  0  0  0  0
    1.0368   -2.0203   -0.5447 O   0  0  0  0  0  0  0  0  0  0  0  0
   -0.4027   -0.1530    0.0653 C   0  0  0  0  0  0  0  0  0  0  0  0
   -0.9181   -0.0017   -1.3621 C   0  0  0  0  0  0  0  0  0  0  0  0
   -1.2883   -1.1250    0.8440 C   0  0  0  0  0  0  0  0  0  0  0  0
   -0.4093    1.2040    0.7643 C   0  0  0  0  0  0  0  0  0  0  0  0
   -1.7592    1.6026    0.9529 O   0  0  0  0  0  0  0  0  0  0  0  0
    2.1831    1.1827    0.9052 H   0  0  0  0  0  0  0  0  0  0  0  0
    1.3456   -0.8708    1.1063 H   0  0  0  0  0  0  0  0  0  0  0  0
    1.4535   -1.8776   -1.4086 H   0  0  0  0  0  0  0  0  0  0  0  0
   -0.2848    0.6614   -1.9527 H   0  0  0  0  0  0  0  0  0  0  0  0
   -1.9229    0.4147   -1.3397 H   0  0  0  0  0  0  0  0  0  0  0  0
   -0.9538   -0.9707   -1.8557 H   0  0  0  0  0  0  0  0  0  0  0  0
   -1.2397   -2.1120    0.3907 H   0  0  0  0  0  0  0  0  0  0  0  0
   -2.3176   -0.7764    0.8414 H   0  0  0  0  0  0  0  0  0  0  0  0
   -0.9587   -1.2033    1.8819 H   0  0  0  0  0  0  0  0  0  0  0  0
    0.1236    1.9410    0.1584 H   0  0  0  0  0  0  0  0  0  0  0  0
    0.0977    1.1154    1.7374 H   0  0  0  0  0  0  0  0  0  0  0  0
   -1.7582    2.5297    1.2056 H   0  0  0  0  0  0  0  0  0  0  0  0
  1  2  2  0  0  0  0
  2  3  1  0  0  0  0
  2  4  1  0  0  0  0
  3 11  1  0  0  0  0
  4  6  1  0  0  0  0
  4 12  1  1  0  0  0
  5  4  1  0  0  0  0
  6  9  1  0  0  0  0
  6  8  1  0  0  0  0
  7 15  1  0  0  0  0
  7  6  1  0  0  0  0
  8 19  1  0  0  0  0
  9 10  1  0  0  0  0
  9 21  1  0  0  0  0
 10 22  1  0  0  0  0
 13  5  1  0  0  0  0
 14  7  1  0  0  0  0
 16  7  1  0  0  0  0
 17  8  1  0  0  0  0
 18  8  1  0  0  0  0
 20  9  1  0  0  0  0
M  END
