astex_1meh_09.xyz
 OpenBabel11041815263D

 43 44  0  0  0  0  0  0  0  0999 V2000
   -2.9694    3.1317    0.7738 C   0  0  0  0  0  0  0  0  0  0  0  0
   -2.5538    3.9368    1.5617 O   0  0  0  0  0  0  0  0  0  0  0  0
   -2.2806    2.0509    0.0389 C   0  0  0  0  0  0  0  0  0  0  0  0
   -3.2067    1.3886   -0.7514 C   0  0  0  0  0  0  0  0  0  0  0  0
   -4.5363    2.0464   -0.5422 C   0  0  0  0  0  0  0  0  0  0  0  0
   -4.2987    3.0951    0.4006 O   0  0  0  0  0  0  0  0  0  0  0  0
   -2.8784    0.3044   -1.5549 C   0  0  0  0  0  0  0  0  0  0  0  0
   -3.8983   -0.4064   -2.3934 C   0  0  0  0  0  0  0  0  0  0  0  0
   -1.5298   -0.0753   -1.5371 C   0  0  0  0  0  0  0  0  0  0  0  0
   -0.5578    0.5908   -0.7701 C   0  0  0  0  0  0  0  0  0  0  0  0
   -0.9426    1.6614    0.0520 C   0  0  0  0  0  0  0  0  0  0  0  0
   -0.0522    2.3363    0.8207 O   0  0  0  0  0  0  0  0  0  0  0  0
    0.8946    0.1937   -0.8351 C   0  0  0  0  0  0  0  0  0  0  0  0
    1.3858   -0.2736    0.5047 C   0  0  0  0  0  0  0  0  0  0  0  0
    2.4248    0.2048    1.2169 C   0  0  0  0  0  0  0  0  0  0  0  0
    2.7599   -0.4166    2.5473 C   0  0  0  0  0  0  0  0  0  0  0  0
    3.9358   -1.3876    2.4366 C   0  0  0  0  0  0  0  0  0  0  0  0
    3.5612   -2.6260    1.6672 C   0  0  0  0  0  0  0  0  0  0  0  0
    2.4554   -3.1135    1.6091 O   0  0  0  0  0  0  0  0  0  0  0  0
    4.6347   -3.1730    1.0515 O   0  0  0  0  0  0  0  0  0  0  0  0
    3.3317    1.3177    0.7755 C   0  0  0  0  0  0  0  0  0  0  0  0
   -1.1266   -1.1207   -2.3431 O   0  0  0  0  0  0  0  0  0  0  0  0
   -1.2019   -2.3716   -1.6609 C   0  0  0  0  0  0  0  0  0  0  0  0
   -4.9359    2.4858   -1.4578 H   0  0  0  0  0  0  0  0  0  0  0  0
   -5.2815    1.3665   -0.1265 H   0  0  0  0  0  0  0  0  0  0  0  0
   -4.4822   -1.1088   -1.7957 H   0  0  0  0  0  0  0  0  0  0  0  0
   -4.5965    0.3042   -2.8349 H   0  0  0  0  0  0  0  0  0  0  0  0
   -3.4163   -0.9608   -3.1941 H   0  0  0  0  0  0  0  0  0  0  0  0
    0.6955    1.7392    0.9874 H   0  0  0  0  0  0  0  0  0  0  0  0
    1.0018   -0.5997   -1.5740 H   0  0  0  0  0  0  0  0  0  0  0  0
    1.4770    1.0444   -1.1917 H   0  0  0  0  0  0  0  0  0  0  0  0
    0.8160   -1.0820    0.9517 H   0  0  0  0  0  0  0  0  0  0  0  0
    1.8985   -0.9567    2.9367 H   0  0  0  0  0  0  0  0  0  0  0  0
    3.0190    0.3648    3.2642 H   0  0  0  0  0  0  0  0  0  0  0  0
    4.2478   -1.7207    3.4291 H   0  0  0  0  0  0  0  0  0  0  0  0
    4.8066   -0.9295    1.9723 H   0  0  0  0  0  0  0  0  0  0  0  0
    4.3057   -3.9788    0.6245 H   0  0  0  0  0  0  0  0  0  0  0  0
    3.2841    2.1470    1.4847 H   0  0  0  0  0  0  0  0  0  0  0  0
    4.3693    0.9813    0.7564 H   0  0  0  0  0  0  0  0  0  0  0  0
    3.0923    1.7014   -0.2119 H   0  0  0  0  0  0  0  0  0  0  0  0
   -0.9127   -3.1364   -2.3759 H   0  0  0  0  0  0  0  0  0  0  0  0
   -2.2178   -2.5623   -1.3101 H   0  0  0  0  0  0  0  0  0  0  0  0
   -0.5211   -2.3931   -0.8070 H   0  0  0  0  0  0  0  0  0  0  0  0
  1  2  2  0  0  0  0
  3 11  1  0  0  0  0
  3  1  1  0  0  0  0
  4  5  1  0  0  0  0
  4  3  2  0  0  0  0
  5 25  1  0  0  0  0
  5  6  1  0  0  0  0
  6  1  1  0  0  0  0
  7  9  2  0  0  0  0
  7  4  1  0  0  0  0
  8 26  1  0  0  0  0
  8  7  1  0  0  0  0
  9 10  1  0  0  0  0
 10 11  2  0  0  0  0
 11 12  1  0  0  0  0
 12 29  1  0  0  0  0
 13 10  1  0  0  0  0
 13 14  1  0  0  0  0
 14 32  1  0  0  0  0
 14 15  2  0  0  0  0
 15 16  1  0  0  0  0
 16 33  1  0  0  0  0
 16 34  1  0  0  0  0
 17 16  1  0  0  0  0
 17 35  1  0  0  0  0
 18 17  1  0  0  0  0
 19 18  2  0  0  0  0
 20 18  1  0  0  0  0
 21 15  1  0  0  0  0
 21 38  1  0  0  0  0
 22 23  1  0  0  0  0
 22  9  1  0  0  0  0
 23 42  1  0  0  0  0
 23 43  1  0  0  0  0
 24  5  1  0  0  0  0
 27  8  1  0  0  0  0
 28  8  1  0  0  0  0
 30 13  1  0  0  0  0
 31 13  1  0  0  0  0
 36 17  1  0  0  0  0
 37 20  1  0  0  0  0
 39 21  1  0  0  0  0
 40 21  1  0  0  0  0
 41 23  1  0  0  0  0
M  END
