astex_1n2j_13.xyz
 OpenBabel11041815263D

 22 21  0  0  1  0  0  0  0  0999 V2000
    1.8494   -2.3793   -0.2278 O   0  0  0  0  0  0  0  0  0  0  0  0
    1.6619   -1.2664    0.2086 C   0  0  0  0  0  0  0  0  0  0  0  0
    2.0583   -0.9099    1.4368 O   0  0  0  0  0  0  0  0  0  0  0  0
    0.9920   -0.1817   -0.6390 C   0  0  2  0  0  0  0  0  0  0  0  0
    1.7036    1.0496   -0.5851 O   0  0  0  0  0  0  0  0  0  0  0  0
   -0.4728    0.1186   -0.2586 C   0  0  0  0  0  0  0  0  0  0  0  0
   -1.1838   -1.1660    0.1550 C   0  0  0  0  0  0  0  0  0  0  0  0
   -1.1596    0.7175   -1.4868 C   0  0  0  0  0  0  0  0  0  0  0  0
   -0.5633    1.1766    0.8426 C   0  0  0  0  0  0  0  0  0  0  0  0
    0.1251    0.8480    2.0532 O   0  0  0  0  0  0  0  0  0  0  0  0
    1.6309   -0.0539    1.6532 H   0  0  0  0  0  0  0  0  0  0  0  0
    0.9931   -0.5927   -1.6512 H   0  0  0  0  0  0  0  0  0  0  0  0
    2.5841    0.8973   -0.9446 H   0  0  0  0  0  0  0  0  0  0  0  0
   -2.2469   -0.9720    0.3024 H   0  0  0  0  0  0  0  0  0  0  0  0
   -1.0806   -1.9321   -0.6132 H   0  0  0  0  0  0  0  0  0  0  0  0
   -0.7767   -1.5846    1.0765 H   0  0  0  0  0  0  0  0  0  0  0  0
   -1.2214   -0.0231   -2.2838 H   0  0  0  0  0  0  0  0  0  0  0  0
   -0.6039    1.5788   -1.8556 H   0  0  0  0  0  0  0  0  0  0  0  0
   -2.1739    1.0373   -1.2456 H   0  0  0  0  0  0  0  0  0  0  0  0
   -0.1113    2.1013    0.4972 H   0  0  0  0  0  0  0  0  0  0  0  0
   -1.6193    1.3647    1.0537 H   0  0  0  0  0  0  0  0  0  0  0  0
   -0.3848    0.1722    2.5121 H   0  0  0  0  0  0  0  0  0  0  0  0
  1  2  2  0  0  0  0
  2  3  1  0  0  0  0
  3 11  1  0  0  0  0
  4 12  1  6  0  0  0
  4  5  1  0  0  0  0
  4  6  1  0  0  0  0
  4  2  1  0  0  0  0
  6  7  1  0  0  0  0
  6  9  1  0  0  0  0
  7 14  1  0  0  0  0
  7 16  1  0  0  0  0
  8 19  1  0  0  0  0
  8  6  1  0  0  0  0
  9 21  1  0  0  0  0
  9 10  1  0  0  0  0
 10 22  1  0  0  0  0
 13  5  1  0  0  0  0
 15  7  1  0  0  0  0
 17  8  1  0  0  0  0
 18  8  1  0  0  0  0
 20  9  1  0  0  0  0
M  END
