astex_1n2j_06.xyz
 OpenBabel11041815263D

 22 21  0  0  1  0  0  0  0  0999 V2000
    2.4524   -0.6542   -1.4902 O   0  0  0  0  0  0  0  0  0  0  0  0
    2.0132   -0.0974   -0.5054 C   0  0  0  0  0  0  0  0  0  0  0  0
    2.4914    1.0728   -0.0462 O   0  0  0  0  0  0  0  0  0  0  0  0
    0.8803   -0.6578    0.3210 C   0  0  2  0  0  0  0  0  0  0  0  0
    0.8051   -2.0471    0.0801 O   0  0  0  0  0  0  0  0  0  0  0  0
   -0.4701    0.0297    0.0078 C   0  0  0  0  0  0  0  0  0  0  0  0
   -0.4200    1.5310    0.2781 C   0  0  0  0  0  0  0  0  0  0  0  0
   -0.8875   -0.2330   -1.4344 C   0  0  0  0  0  0  0  0  0  0  0  0
   -1.5096   -0.6159    0.9303 C   0  0  0  0  0  0  0  0  0  0  0  0
   -1.2460   -0.4112    2.3114 O   0  0  0  0  0  0  0  0  0  0  0  0
    3.1969    1.3282   -0.6612 H   0  0  0  0  0  0  0  0  0  0  0  0
    1.0970   -0.4969    1.3777 H   0  0  0  0  0  0  0  0  0  0  0  0
    1.2843   -2.1909   -0.7484 H   0  0  0  0  0  0  0  0  0  0  0  0
    0.1772    2.0551   -0.4645 H   0  0  0  0  0  0  0  0  0  0  0  0
   -1.4318    1.9396    0.2391 H   0  0  0  0  0  0  0  0  0  0  0  0
    0.0084    1.7533    1.2554 H   0  0  0  0  0  0  0  0  0  0  0  0
   -0.9801   -1.3009   -1.6245 H   0  0  0  0  0  0  0  0  0  0  0  0
   -0.1652    0.1784   -2.1399 H   0  0  0  0  0  0  0  0  0  0  0  0
   -1.8517    0.2352   -1.6343 H   0  0  0  0  0  0  0  0  0  0  0  0
   -1.5027   -1.6926    0.7796 H   0  0  0  0  0  0  0  0  0  0  0  0
   -2.4985   -0.2332    0.6565 H   0  0  0  0  0  0  0  0  0  0  0  0
   -1.4427    0.5079    2.5121 H   0  0  0  0  0  0  0  0  0  0  0  0
  1  2  2  0  0  0  0
  2  3  1  0  0  0  0
  2  4  1  0  0  0  0
  4 12  1  1  0  0  0
  5  4  1  0  0  0  0
  6  7  1  0  0  0  0
  6  4  1  0  0  0  0
  6  9  1  0  0  0  0
  7 16  1  0  0  0  0
  8  6  1  0  0  0  0
  9 10  1  0  0  0  0
 10 22  1  0  0  0  0
 11  3  1  0  0  0  0
 13  5  1  0  0  0  0
 14  7  1  0  0  0  0
 15  7  1  0  0  0  0
 17  8  1  0  0  0  0
 18  8  1  0  0  0  0
 19  8  1  0  0  0  0
 20  9  1  0  0  0  0
 21  9  1  0  0  0  0
M  END
