astex_1n2j_14.xyz
 OpenBabel11041815263D

 22 21  0  0  1  0  0  0  0  0999 V2000
    2.1222    0.8411   -1.7861 O   0  0  0  0  0  0  0  0  0  0  0  0
    1.8797   -0.1314   -1.1147 C   0  0  0  0  0  0  0  0  0  0  0  0
    2.2009   -1.3775   -1.5042 O   0  0  0  0  0  0  0  0  0  0  0  0
    1.1633   -0.0667    0.2336 C   0  0  2  0  0  0  0  0  0  0  0  0
    1.3623   -1.2950    0.9494 O   0  0  0  0  0  0  0  0  0  0  0  0
   -0.3486    0.1520    0.0638 C   0  0  0  0  0  0  0  0  0  0  0  0
   -0.9707   -0.9642   -0.7710 C   0  0  0  0  0  0  0  0  0  0  0  0
   -0.6067    1.5068   -0.5902 C   0  0  0  0  0  0  0  0  0  0  0  0
   -0.9573    0.1447    1.4750 C   0  0  0  0  0  0  0  0  0  0  0  0
   -2.3525    0.3975    1.4830 O   0  0  0  0  0  0  0  0  0  0  0  0
    1.9355   -1.9536   -0.7655 H   0  0  0  0  0  0  0  0  0  0  0  0
    1.5820    0.7766    0.7869 H   0  0  0  0  0  0  0  0  0  0  0  0
    2.1727   -1.2122    1.4627 H   0  0  0  0  0  0  0  0  0  0  0  0
   -0.7289   -1.9438   -0.3596 H   0  0  0  0  0  0  0  0  0  0  0  0
   -2.0533   -0.8547   -0.7626 H   0  0  0  0  0  0  0  0  0  0  0  0
   -0.6276   -0.9235   -1.8048 H   0  0  0  0  0  0  0  0  0  0  0  0
   -0.2131    2.3223    0.0200 H   0  0  0  0  0  0  0  0  0  0  0  0
   -1.6792    1.6508   -0.7181 H   0  0  0  0  0  0  0  0  0  0  0  0
   -0.1426    1.5732   -1.5704 H   0  0  0  0  0  0  0  0  0  0  0  0
   -0.8314   -0.8369    1.9226 H   0  0  0  0  0  0  0  0  0  0  0  0
   -0.4227    0.8731    2.0970 H   0  0  0  0  0  0  0  0  0  0  0  0
   -2.4838    1.3214    1.2532 H   0  0  0  0  0  0  0  0  0  0  0  0
  1  2  2  0  0  0  0
  2  4  1  0  0  0  0
  3  2  1  0  0  0  0
  3 11  1  0  0  0  0
  4 12  1  1  0  0  0
  4  5  1  0  0  0  0
  5 13  1  0  0  0  0
  6  4  1  0  0  0  0
  6  9  1  0  0  0  0
  7 15  1  0  0  0  0
  7 14  1  0  0  0  0
  7  6  1  0  0  0  0
  8 17  1  0  0  0  0
  8  6  1  0  0  0  0
  9 10  1  0  0  0  0
  9 20  1  0  0  0  0
  9 21  1  0  0  0  0
 16  7  1  0  0  0  0
 18  8  1  0  0  0  0
 19  8  1  0  0  0  0
 22 10  1  0  0  0  0
M  END
