astex_1meh_29.xyz
 OpenBabel11041815263D

 43 44  0  0  0  0  0  0  0  0999 V2000
   -3.0624    2.7996    0.5914 C   0  0  0  0  0  0  0  0  0  0  0  0
   -2.9026    3.5072    1.5480 O   0  0  0  0  0  0  0  0  0  0  0  0
   -2.5268    1.4574    0.2823 C   0  0  0  0  0  0  0  0  0  0  0  0
   -2.9923    1.0674   -0.9637 C   0  0  0  0  0  0  0  0  0  0  0  0
   -3.8671    2.1661   -1.4859 C   0  0  0  0  0  0  0  0  0  0  0  0
   -3.8498    3.1792   -0.4767 O   0  0  0  0  0  0  0  0  0  0  0  0
   -2.6509   -0.1430   -1.5537 C   0  0  0  0  0  0  0  0  0  0  0  0
   -3.1625   -0.5491   -2.9033 C   0  0  0  0  0  0  0  0  0  0  0  0
   -1.8038   -0.9648   -0.7983 C   0  0  0  0  0  0  0  0  0  0  0  0
   -1.3223   -0.6064    0.4726 C   0  0  0  0  0  0  0  0  0  0  0  0
   -1.6863    0.6306    1.0239 C   0  0  0  0  0  0  0  0  0  0  0  0
   -1.2485    1.0400    2.2395 O   0  0  0  0  0  0  0  0  0  0  0  0
   -0.4614   -1.5473    1.2643 C   0  0  0  0  0  0  0  0  0  0  0  0
    0.8917   -1.0405    1.7021 C   0  0  0  0  0  0  0  0  0  0  0  0
    1.6504   -0.0346    1.2241 C   0  0  0  0  0  0  0  0  0  0  0  0
    2.9834    0.2363    1.8729 C   0  0  0  0  0  0  0  0  0  0  0  0
    4.1390   -0.3495    1.0435 C   0  0  0  0  0  0  0  0  0  0  0  0
    5.4609    0.0429    1.6613 C   0  0  0  0  0  0  0  0  0  0  0  0
    6.0423    1.0657    1.4091 O   0  0  0  0  0  0  0  0  0  0  0  0
    5.9520   -0.8110    2.6012 O   0  0  0  0  0  0  0  0  0  0  0  0
    1.3224    0.8797    0.0766 C   0  0  0  0  0  0  0  0  0  0  0  0
   -1.4523   -2.1984   -1.3098 O   0  0  0  0  0  0  0  0  0  0  0  0
   -0.2493   -2.1323   -2.0726 C   0  0  0  0  0  0  0  0  0  0  0  0
   -3.4939    2.5957   -2.4165 H   0  0  0  0  0  0  0  0  0  0  0  0
   -4.8986    1.8439   -1.6378 H   0  0  0  0  0  0  0  0  0  0  0  0
   -2.5711   -0.0998   -3.7032 H   0  0  0  0  0  0  0  0  0  0  0  0
   -3.1226   -1.6290   -3.0188 H   0  0  0  0  0  0  0  0  0  0  0  0
   -4.1931   -0.2230   -3.0383 H   0  0  0  0  0  0  0  0  0  0  0  0
   -0.4711    0.5076    2.4696 H   0  0  0  0  0  0  0  0  0  0  0  0
   -0.3484   -2.4787    0.7086 H   0  0  0  0  0  0  0  0  0  0  0  0
   -1.0102   -1.8169    2.1733 H   0  0  0  0  0  0  0  0  0  0  0  0
    1.3079   -1.5897    2.5431 H   0  0  0  0  0  0  0  0  0  0  0  0
    3.0074   -0.1850    2.8789 H   0  0  0  0  0  0  0  0  0  0  0  0
    3.1400    1.3135    1.9632 H   0  0  0  0  0  0  0  0  0  0  0  0
    4.1210    0.0567    0.0353 H   0  0  0  0  0  0  0  0  0  0  0  0
    4.0279   -1.4332    0.9806 H   0  0  0  0  0  0  0  0  0  0  0  0
    5.3764   -1.5816    2.6541 H   0  0  0  0  0  0  0  0  0  0  0  0
    2.2273    1.1044   -0.4885 H   0  0  0  0  0  0  0  0  0  0  0  0
    0.5821    0.4740   -0.6043 H   0  0  0  0  0  0  0  0  0  0  0  0
    0.9430    1.8312    0.4577 H   0  0  0  0  0  0  0  0  0  0  0  0
   -0.0775   -3.1269   -2.4740 H   0  0  0  0  0  0  0  0  0  0  0  0
    0.5957   -1.8405   -1.4440 H   0  0  0  0  0  0  0  0  0  0  0  0
   -0.3464   -1.4179   -2.8925 H   0  0  0  0  0  0  0  0  0  0  0  0
  1  2  2  0  0  0  0
  3  1  1  0  0  0  0
  3 11  2  0  0  0  0
  4  3  1  0  0  0  0
  5  4  1  0  0  0  0
  5  6  1  0  0  0  0
  6  1  1  0  0  0  0
  7  4  2  0  0  0  0
  7  9  1  0  0  0  0
  8  7  1  0  0  0  0
  9 10  2  0  0  0  0
 10 11  1  0  0  0  0
 10 13  1  0  0  0  0
 11 12  1  0  0  0  0
 12 29  1  0  0  0  0
 13 14  1  0  0  0  0
 13 31  1  0  0  0  0
 14 32  1  0  0  0  0
 15 14  2  0  0  0  0
 15 16  1  0  0  0  0
 16 34  1  0  0  0  0
 16 33  1  0  0  0  0
 17 18  1  0  0  0  0
 17 16  1  0  0  0  0
 18 20  1  0  0  0  0
 19 18  2  0  0  0  0
 20 37  1  0  0  0  0
 21 40  1  0  0  0  0
 21 15  1  0  0  0  0
 22  9  1  0  0  0  0
 23 42  1  0  0  0  0
 23 22  1  0  0  0  0
 24  5  1  0  0  0  0
 25  5  1  0  0  0  0
 26  8  1  0  0  0  0
 27  8  1  0  0  0  0
 28  8  1  0  0  0  0
 30 13  1  0  0  0  0
 35 17  1  0  0  0  0
 36 17  1  0  0  0  0
 38 21  1  0  0  0  0
 39 21  1  0  0  0  0
 41 23  1  0  0  0  0
 43 23  1  0  0  0  0
M  END
