astex_1of1_09.xyz
 OpenBabel11041815263D

 34 36  0  0  1  0  0  0  0  0999 V2000
    3.0264    1.6894   -1.3105 O   0  0  0  0  0  0  0  0  0  0  0  0
    3.6751    0.9615   -0.2750 C   0  0  0  0  0  0  0  0  0  0  0  0
    2.6752   -0.0121    0.3085 C   0  0  2  0  0  0  0  0  0  0  0  0
    2.2313   -1.0914   -0.6801 C   0  0  1  0  0  0  0  0  0  0  0  0
    3.2590   -2.0653   -0.7955 O   0  0  0  0  0  0  0  0  0  0  0  0
    0.9108   -1.6196   -0.1016 C   0  0  0  0  0  0  0  0  0  0  0  0
    0.2703   -0.3847    0.5177 C   0  0  2  0  0  0  0  0  0  0  0  0
   -1.0295    0.0262    0.0648 N   0  0  0  0  0  0  0  0  0  0  0  0
   -1.1394    0.4606   -1.2495 C   0  0  0  0  0  0  0  0  0  0  0  0
   -0.1944    0.5216   -2.0158 O   0  0  0  0  0  0  0  0  0  0  0  0
   -2.4258    0.8159   -1.6058 N   0  0  0  0  0  0  0  0  0  0  0  0
   -3.5997    0.7205   -0.8561 C   0  0  0  0  0  0  0  0  0  0  0  0
   -4.6743    1.0638   -1.3270 O   0  0  0  0  0  0  0  0  0  0  0  0
   -3.4000    0.1811    0.4792 C   0  0  0  0  0  0  0  0  0  0  0  0
   -2.1422   -0.1389    0.8597 C   0  0  0  0  0  0  0  0  0  0  0  0
   -4.5956    0.0096    1.3563 C   0  0  0  0  0  0  0  0  0  0  0  0
    1.3735    0.6270    0.7541 C   0  0  1  0  0  0  0  0  0  0  0  0
    0.6599   -0.0097    1.9186 C   0  0  0  0  0  0  0  0  0  0  0  0
    3.6818    2.2526   -1.7306 H   0  0  0  0  0  0  0  0  0  0  0  0
    4.5268    0.3939   -0.6596 H   0  0  0  0  0  0  0  0  0  0  0  0
    4.0341    1.6345    0.5097 H   0  0  0  0  0  0  0  0  0  0  0  0
    3.1619   -0.5197    1.1479 H   0  0  0  0  0  0  0  0  0  0  0  0
    2.0259   -0.6083   -1.6362 H   0  0  0  0  0  0  0  0  0  0  0  0
    3.1331   -2.5281   -1.6284 H   0  0  0  0  0  0  0  0  0  0  0  0
    0.2664   -2.0508   -0.8657 H   0  0  0  0  0  0  0  0  0  0  0  0
    1.1241   -2.3851    0.6476 H   0  0  0  0  0  0  0  0  0  0  0  0
   -2.5275    1.1524   -2.5538 H   0  0  0  0  0  0  0  0  0  0  0  0
   -1.9316   -0.5479    1.8377 H   0  0  0  0  0  0  0  0  0  0  0  0
   -5.3216   -0.6534    0.8879 H   0  0  0  0  0  0  0  0  0  0  0  0
   -5.0952    0.9648    1.5114 H   0  0  0  0  0  0  0  0  0  0  0  0
   -4.3128   -0.4025    2.3228 H   0  0  0  0  0  0  0  0  0  0  0  0
    1.1904    1.6691    0.5409 H   0  0  0  0  0  0  0  0  0  0  0  0
   -0.0241    0.6215    2.4681 H   0  0  0  0  0  0  0  0  0  0  0  0
    1.1875   -0.7486    2.5065 H   0  0  0  0  0  0  0  0  0  0  0  0
  1  2  1  0  0  0  0
  2  3  1  0  0  0  0
  2 21  1  0  0  0  0
  3 17  1  0  0  0  0
  3 22  1  1  0  0  0
  4 23  1  6  0  0  0
  4  6  1  0  0  0  0
  4  3  1  0  0  0  0
  5  4  1  0  0  0  0
  6  7  1  0  0  0  0
  6 26  1  0  0  0  0
  7  8  1  6  0  0  0
  7 17  1  0  0  0  0
  7 18  1  0  0  0  0
  8 15  1  0  0  0  0
  9  8  1  0  0  0  0
 10  9  2  0  0  0  0
 11  9  1  0  0  0  0
 11 12  1  0  0  0  0
 12 14  1  0  0  0  0
 13 12  2  0  0  0  0
 14 15  2  0  0  0  0
 14 16  1  0  0  0  0
 15 28  1  0  0  0  0
 16 30  1  0  0  0  0
 16 31  1  0  0  0  0
 17 32  1  6  0  0  0
 17 18  1  0  0  0  0
 18 33  1  0  0  0  0
 18 34  1  0  0  0  0
 19  1  1  0  0  0  0
 20  2  1  0  0  0  0
 24  5  1  0  0  0  0
 25  6  1  0  0  0  0
 27 11  1  0  0  0  0
 29 16  1  0  0  0  0
M  END
