astex_1n2j_07.xyz
 OpenBabel11041815263D

 22 21  0  0  1  0  0  0  0  0999 V2000
    2.0943    0.5974    1.5135 O   0  0  0  0  0  0  0  0  0  0  0  0
    1.8984    0.1032    0.4227 C   0  0  0  0  0  0  0  0  0  0  0  0
    2.6320    0.4203   -0.6646 O   0  0  0  0  0  0  0  0  0  0  0  0
    0.7570   -0.8456    0.0969 C   0  0  2  0  0  0  0  0  0  0  0  0
    1.0530   -1.6769   -1.0096 O   0  0  0  0  0  0  0  0  0  0  0  0
   -0.5700   -0.0657   -0.0902 C   0  0  0  0  0  0  0  0  0  0  0  0
   -1.6884   -1.0996   -0.0734 C   0  0  0  0  0  0  0  0  0  0  0  0
   -0.5747    0.6867   -1.4183 C   0  0  0  0  0  0  0  0  0  0  0  0
   -0.7960    0.9416    1.0406 C   0  0  0  0  0  0  0  0  0  0  0  0
   -0.7319    0.3450    2.3252 O   0  0  0  0  0  0  0  0  0  0  0  0
    3.2578    1.1026   -0.3766 H   0  0  0  0  0  0  0  0  0  0  0  0
    0.6377   -1.5060    0.9499 H   0  0  0  0  0  0  0  0  0  0  0  0
    1.3951   -1.1180   -1.7140 H   0  0  0  0  0  0  0  0  0  0  0  0
   -1.4911   -1.8824   -0.8035 H   0  0  0  0  0  0  0  0  0  0  0  0
   -1.7680   -1.5501    0.9148 H   0  0  0  0  0  0  0  0  0  0  0  0
   -2.6402   -0.6276   -0.3174 H   0  0  0  0  0  0  0  0  0  0  0  0
    0.2859    1.3495   -1.5173 H   0  0  0  0  0  0  0  0  0  0  0  0
   -1.4770    1.2938   -1.4901 H   0  0  0  0  0  0  0  0  0  0  0  0
   -0.5846   -0.0081   -2.2549 H   0  0  0  0  0  0  0  0  0  0  0  0
   -0.0825    1.7609    0.9544 H   0  0  0  0  0  0  0  0  0  0  0  0
   -1.7929    1.3647    0.9066 H   0  0  0  0  0  0  0  0  0  0  0  0
    0.1861    0.4140    2.6054 H   0  0  0  0  0  0  0  0  0  0  0  0
  2  1  2  0  0  0  0
  3 11  1  0  0  0  0
  3  2  1  0  0  0  0
  4  2  1  0  0  0  0
  4 12  1  1  0  0  0
  5  4  1  0  0  0  0
  6  7  1  0  0  0  0
  6  4  1  0  0  0  0
  6  9  1  0  0  0  0
  7 15  1  0  0  0  0
  8  6  1  0  0  0  0
  9 10  1  0  0  0  0
 10 22  1  0  0  0  0
 13  5  1  0  0  0  0
 14  7  1  0  0  0  0
 16  7  1  0  0  0  0
 17  8  1  0  0  0  0
 18  8  1  0  0  0  0
 19  8  1  0  0  0  0
 20  9  1  0  0  0  0
 21  9  1  0  0  0  0
M  END
