astex_1n2j_05.xyz
 OpenBabel11041815263D

 22 21  0  0  1  0  0  0  0  0999 V2000
    1.4491    1.8566   -1.0921 O   0  0  0  0  0  0  0  0  0  0  0  0
    1.6559    0.7110   -0.7439 C   0  0  0  0  0  0  0  0  0  0  0  0
    2.8246    0.3214   -0.2004 O   0  0  0  0  0  0  0  0  0  0  0  0
    0.6520   -0.4270   -0.8465 C   0  0  2  0  0  0  0  0  0  0  0  0
    0.0592   -0.4267   -2.1249 O   0  0  0  0  0  0  0  0  0  0  0  0
   -0.3805   -0.3452    0.3014 C   0  0  0  0  0  0  0  0  0  0  0  0
   -1.4761   -1.3733    0.0259 C   0  0  0  0  0  0  0  0  0  0  0  0
    0.2921   -0.6588    1.6343 C   0  0  0  0  0  0  0  0  0  0  0  0
   -0.9970    1.0574    0.3909 C   0  0  0  0  0  0  0  0  0  0  0  0
   -1.3544    1.6061   -0.8783 O   0  0  0  0  0  0  0  0  0  0  0  0
    3.3780    1.1180   -0.1628 H   0  0  0  0  0  0  0  0  0  0  0  0
    1.1991   -1.3648   -0.7515 H   0  0  0  0  0  0  0  0  0  0  0  0
   -0.6332    0.2509   -2.0870 H   0  0  0  0  0  0  0  0  0  0  0  0
   -2.1383   -1.4359    0.8900 H   0  0  0  0  0  0  0  0  0  0  0  0
   -2.0698   -1.1016   -0.8433 H   0  0  0  0  0  0  0  0  0  0  0  0
   -1.0486   -2.3602   -0.1522 H   0  0  0  0  0  0  0  0  0  0  0  0
    1.1274    0.0103    1.8397 H   0  0  0  0  0  0  0  0  0  0  0  0
    0.6674   -1.6821    1.6448 H   0  0  0  0  0  0  0  0  0  0  0  0
   -0.4278   -0.5578    2.4474 H   0  0  0  0  0  0  0  0  0  0  0  0
   -1.9099    0.9984    0.9843 H   0  0  0  0  0  0  0  0  0  0  0  0
   -0.3108    1.7346    0.9049 H   0  0  0  0  0  0  0  0  0  0  0  0
   -0.5585    2.0688   -1.1808 H   0  0  0  0  0  0  0  0  0  0  0  0
  1  2  2  0  0  0  0
  2  3  1  0  0  0  0
  3 11  1  0  0  0  0
  4 12  1  1  0  0  0
  4  2  1  0  0  0  0
  4  6  1  0  0  0  0
  5 13  1  0  0  0  0
  5  4  1  0  0  0  0
  6  9  1  0  0  0  0
  6  8  1  0  0  0  0
  7  6  1  0  0  0  0
  7 14  1  0  0  0  0
  8 18  1  0  0  0  0
  8 17  1  0  0  0  0
  8 19  1  0  0  0  0
  9 21  1  0  0  0  0
  9 20  1  0  0  0  0
 10  9  1  0  0  0  0
 15  7  1  0  0  0  0
 16  7  1  0  0  0  0
 22 10  1  0  0  0  0
M  END
