astex_1meh_05.xyz
 OpenBabel11041815263D

 43 44  0  0  0  0  0  0  0  0999 V2000
   -3.5052    2.3648    1.1880 C   0  0  0  0  0  0  0  0  0  0  0  0
   -3.6453    2.6455    2.3602 O   0  0  0  0  0  0  0  0  0  0  0  0
   -2.7025    1.2990    0.6075 C   0  0  0  0  0  0  0  0  0  0  0  0
   -2.8127    1.3339   -0.7703 C   0  0  0  0  0  0  0  0  0  0  0  0
   -3.7377    2.4708   -1.0991 C   0  0  0  0  0  0  0  0  0  0  0  0
   -4.1116    3.0443    0.1726 O   0  0  0  0  0  0  0  0  0  0  0  0
   -2.1249    0.4341   -1.5730 C   0  0  0  0  0  0  0  0  0  0  0  0
   -2.1990    0.4671   -3.0704 C   0  0  0  0  0  0  0  0  0  0  0  0
   -1.3264   -0.4983   -0.8847 C   0  0  0  0  0  0  0  0  0  0  0  0
   -1.2010   -0.5501    0.5158 C   0  0  0  0  0  0  0  0  0  0  0  0
   -1.9032    0.3856    1.2812 C   0  0  0  0  0  0  0  0  0  0  0  0
   -1.7906    0.3963    2.6310 O   0  0  0  0  0  0  0  0  0  0  0  0
   -0.2651   -1.5221    1.1814 C   0  0  0  0  0  0  0  0  0  0  0  0
    1.0880   -0.8811    1.3087 C   0  0  0  0  0  0  0  0  0  0  0  0
    2.2060   -1.2177    0.6458 C   0  0  0  0  0  0  0  0  0  0  0  0
    3.4979   -0.4625    0.8088 C   0  0  0  0  0  0  0  0  0  0  0  0
    3.4519    0.7381    1.7321 C   0  0  0  0  0  0  0  0  0  0  0  0
    4.7780    1.4401    1.8117 C   0  0  0  0  0  0  0  0  0  0  0  0
    5.7892    1.1311    1.2246 O   0  0  0  0  0  0  0  0  0  0  0  0
    4.7174    2.5043    2.6494 O   0  0  0  0  0  0  0  0  0  0  0  0
    2.3054   -2.3523   -0.3313 C   0  0  0  0  0  0  0  0  0  0  0  0
   -0.5785   -1.3960   -1.6170 O   0  0  0  0  0  0  0  0  0  0  0  0
   -1.3331   -2.5501   -1.9800 C   0  0  0  0  0  0  0  0  0  0  0  0
   -4.6495    2.1499   -1.6027 H   0  0  0  0  0  0  0  0  0  0  0  0
   -3.2605    3.2517   -1.6915 H   0  0  0  0  0  0  0  0  0  0  0  0
   -3.0730   -0.0721   -3.4399 H   0  0  0  0  0  0  0  0  0  0  0  0
   -2.2743    1.4936   -3.4278 H   0  0  0  0  0  0  0  0  0  0  0  0
   -1.3123    0.0137   -3.5064 H   0  0  0  0  0  0  0  0  0  0  0  0
   -2.3617    1.1210    2.9480 H   0  0  0  0  0  0  0  0  0  0  0  0
   -0.6559   -1.7526    2.1731 H   0  0  0  0  0  0  0  0  0  0  0  0
   -0.2160   -2.4440    0.6105 H   0  0  0  0  0  0  0  0  0  0  0  0
    1.1117   -0.0352    1.9851 H   0  0  0  0  0  0  0  0  0  0  0  0
    3.8403   -0.1400   -0.1782 H   0  0  0  0  0  0  0  0  0  0  0  0
    4.2695   -1.1534    1.1585 H   0  0  0  0  0  0  0  0  0  0  0  0
    3.1676    0.4565    2.7470 H   0  0  0  0  0  0  0  0  0  0  0  0
    2.7110    1.4688    1.4037 H   0  0  0  0  0  0  0  0  0  0  0  0
    5.6057    2.8908    2.6380 H   0  0  0  0  0  0  0  0  0  0  0  0
    2.4626   -1.9641   -1.3392 H   0  0  0  0  0  0  0  0  0  0  0  0
    1.4186   -2.9775   -0.3531 H   0  0  0  0  0  0  0  0  0  0  0  0
    3.1651   -2.9799   -0.0897 H   0  0  0  0  0  0  0  0  0  0  0  0
   -2.1790   -2.2839   -2.6161 H   0  0  0  0  0  0  0  0  0  0  0  0
   -0.6599   -3.2051   -2.5259 H   0  0  0  0  0  0  0  0  0  0  0  0
   -1.7070   -3.0631   -1.0914 H   0  0  0  0  0  0  0  0  0  0  0  0
  1  2  2  0  0  0  0
  3  1  1  0  0  0  0
  3 11  1  0  0  0  0
  4  3  2  0  0  0  0
  5  4  1  0  0  0  0
  5  6  1  0  0  0  0
  6  1  1  0  0  0  0
  7  9  2  0  0  0  0
  7  4  1  0  0  0  0
  8  7  1  0  0  0  0
  9 10  1  0  0  0  0
 10 13  1  0  0  0  0
 10 11  2  0  0  0  0
 11 12  1  0  0  0  0
 12 29  1  0  0  0  0
 13 14  1  0  0  0  0
 13 30  1  0  0  0  0
 14 32  1  0  0  0  0
 15 16  1  0  0  0  0
 15 14  2  0  0  0  0
 16 34  1  0  0  0  0
 16 17  1  0  0  0  0
 17 18  1  0  0  0  0
 17 35  1  0  0  0  0
 18 20  1  0  0  0  0
 19 18  2  0  0  0  0
 21 40  1  0  0  0  0
 21 15  1  0  0  0  0
 22  9  1  0  0  0  0
 23 22  1  0  0  0  0
 23 43  1  0  0  0  0
 24  5  1  0  0  0  0
 25  5  1  0  0  0  0
 26  8  1  0  0  0  0
 27  8  1  0  0  0  0
 28  8  1  0  0  0  0
 31 13  1  0  0  0  0
 33 16  1  0  0  0  0
 36 17  1  0  0  0  0
 37 20  1  0  0  0  0
 38 21  1  0  0  0  0
 39 21  1  0  0  0  0
 41 23  1  0  0  0  0
 42 23  1  0  0  0  0
M  END
