astex_1of1_06.xyz
 OpenBabel11041815263D

 34 36  0  0  1  0  0  0  0  0999 V2000
    4.5962    0.6740   -1.0064 O   0  0  0  0  0  0  0  0  0  0  0  0
    3.4590    1.1918   -0.3094 C   0  0  0  0  0  0  0  0  0  0  0  0
    2.5992    0.0755    0.2505 C   0  0  2  0  0  0  0  0  0  0  0  0
    2.1560   -0.8931   -0.8624 C   0  0  1  0  0  0  0  0  0  0  0  0
    3.1022   -1.8977   -1.1681 O   0  0  0  0  0  0  0  0  0  0  0  0
    0.8544   -1.5134   -0.3603 C   0  0  0  0  0  0  0  0  0  0  0  0
    0.2136   -0.4012    0.4582 C   0  0  2  0  0  0  0  0  0  0  0  0
   -1.0840    0.0826    0.0874 N   0  0  0  0  0  0  0  0  0  0  0  0
   -1.1712    0.8825   -1.0435 C   0  0  0  0  0  0  0  0  0  0  0  0
   -0.2030    1.2233   -1.7032 O   0  0  0  0  0  0  0  0  0  0  0  0
   -2.4622    1.2622   -1.3486 N   0  0  0  0  0  0  0  0  0  0  0  0
   -3.6541    0.9008   -0.7150 C   0  0  0  0  0  0  0  0  0  0  0  0
   -4.7294    1.3133   -1.1230 O   0  0  0  0  0  0  0  0  0  0  0  0
   -3.4698    0.0175    0.4258 C   0  0  0  0  0  0  0  0  0  0  0  0
   -2.2100   -0.3437    0.7580 C   0  0  0  0  0  0  0  0  0  0  0  0
   -4.6826   -0.4398    1.1656 C   0  0  0  0  0  0  0  0  0  0  0  0
    1.3002    0.5747    0.8489 C   0  0  1  0  0  0  0  0  0  0  0  0
    0.6244   -0.2729    1.8972 C   0  0  0  0  0  0  0  0  0  0  0  0
    5.2237    0.3731   -0.3420 H   0  0  0  0  0  0  0  0  0  0  0  0
    2.8838    1.7482   -1.0490 H   0  0  0  0  0  0  0  0  0  0  0  0
    3.7681    1.8876    0.4747 H   0  0  0  0  0  0  0  0  0  0  0  0
    3.1762   -0.4954    0.9863 H   0  0  0  0  0  0  0  0  0  0  0  0
    1.9236   -0.2886   -1.7446 H   0  0  0  0  0  0  0  0  0  0  0  0
    3.8665   -1.4233   -1.5178 H   0  0  0  0  0  0  0  0  0  0  0  0
    0.2081   -1.8252   -1.1782 H   0  0  0  0  0  0  0  0  0  0  0  0
    1.0801   -2.3886    0.2522 H   0  0  0  0  0  0  0  0  0  0  0  0
   -2.5519    1.8547   -2.1631 H   0  0  0  0  0  0  0  0  0  0  0  0
   -2.0047   -0.9980    1.5940 H   0  0  0  0  0  0  0  0  0  0  0  0
   -4.4108   -1.0930    1.9920 H   0  0  0  0  0  0  0  0  0  0  0  0
   -5.3570   -0.9748    0.4987 H   0  0  0  0  0  0  0  0  0  0  0  0
   -5.2359    0.4134    1.5554 H   0  0  0  0  0  0  0  0  0  0  0  0
    1.0737    1.6316    0.8453 H   0  0  0  0  0  0  0  0  0  0  0  0
   -0.0578    0.2379    2.5620 H   0  0  0  0  0  0  0  0  0  0  0  0
    1.1755   -1.0961    2.3308 H   0  0  0  0  0  0  0  0  0  0  0  0
  1 19  1  0  0  0  0
  1  2  1  0  0  0  0
  2  3  1  0  0  0  0
  2 21  1  0  0  0  0
  3 17  1  0  0  0  0
  3 22  1  1  0  0  0
  4 23  1  6  0  0  0
  4  6  1  0  0  0  0
  4  3  1  0  0  0  0
  5  4  1  0  0  0  0
  6 26  1  0  0  0  0
  6  7  1  0  0  0  0
  7  8  1  6  0  0  0
  7 17  1  0  0  0  0
  7 18  1  0  0  0  0
  8 15  1  0  0  0  0
  9  8  1  0  0  0  0
 10  9  2  0  0  0  0
 11  9  1  0  0  0  0
 11 12  1  0  0  0  0
 12 14  1  0  0  0  0
 13 12  2  0  0  0  0
 14 15  2  0  0  0  0
 14 16  1  0  0  0  0
 15 28  1  0  0  0  0
 16 31  1  0  0  0  0
 16 29  1  0  0  0  0
 17 32  1  6  0  0  0
 17 18  1  0  0  0  0
 18 34  1  0  0  0  0
 18 33  1  0  0  0  0
 20  2  1  0  0  0  0
 24  5  1  0  0  0  0
 25  6  1  0  0  0  0
 27 11  1  0  0  0  0
 30 16  1  0  0  0  0
M  END
