astex_1n2j_16.xyz
 OpenBabel11041815263D

 22 21  0  0  1  0  0  0  0  0999 V2000
    2.5033    1.3445    0.4485 O   0  0  0  0  0  0  0  0  0  0  0  0
    2.1561    0.4061   -0.2254 C   0  0  0  0  0  0  0  0  0  0  0  0
    2.7053    0.1218   -1.4154 O   0  0  0  0  0  0  0  0  0  0  0  0
    1.0366   -0.5532    0.1893 C   0  0  2  0  0  0  0  0  0  0  0  0
    1.0140   -1.6652   -0.7280 O   0  0  0  0  0  0  0  0  0  0  0  0
   -0.3378    0.1347    0.1903 C   0  0  0  0  0  0  0  0  0  0  0  0
   -0.3863    1.2504    1.2304 C   0  0  0  0  0  0  0  0  0  0  0  0
   -0.6416    0.6913   -1.1995 C   0  0  0  0  0  0  0  0  0  0  0  0
   -1.3709   -0.9380    0.5679 C   0  0  0  0  0  0  0  0  0  0  0  0
   -2.6936   -0.4296    0.6635 O   0  0  0  0  0  0  0  0  0  0  0  0
    2.2884   -0.7179   -1.6850 H   0  0  0  0  0  0  0  0  0  0  0  0
    1.2663   -0.8945    1.2001 H   0  0  0  0  0  0  0  0  0  0  0  0
    1.3251   -2.4469   -0.2634 H   0  0  0  0  0  0  0  0  0  0  0  0
    0.2642    2.0775    0.9612 H   0  0  0  0  0  0  0  0  0  0  0  0
   -1.4116    1.6050    1.3104 H   0  0  0  0  0  0  0  0  0  0  0  0
   -0.0738    0.8853    2.2098 H   0  0  0  0  0  0  0  0  0  0  0  0
   -0.6296   -0.0938   -1.9563 H   0  0  0  0  0  0  0  0  0  0  0  0
   -1.6227    1.1658   -1.2071 H   0  0  0  0  0  0  0  0  0  0  0  0
    0.0822    1.4563   -1.4801 H   0  0  0  0  0  0  0  0  0  0  0  0
   -1.3214   -1.7657   -0.1402 H   0  0  0  0  0  0  0  0  0  0  0  0
   -1.1305   -1.3225    1.5611 H   0  0  0  0  0  0  0  0  0  0  0  0
   -3.0219   -0.3117   -0.2318 H   0  0  0  0  0  0  0  0  0  0  0  0
  2  4  1  0  0  0  0
  2  1  2  0  0  0  0
  3  2  1  0  0  0  0
  4  6  1  0  0  0  0
  4 12  1  1  0  0  0
  5 13  1  0  0  0  0
  5  4  1  0  0  0  0
  6  9  1  0  0  0  0
  6  7  1  0  0  0  0
  7 15  1  0  0  0  0
  7 16  1  0  0  0  0
  8  6  1  0  0  0  0
  9 10  1  0  0  0  0
  9 21  1  0  0  0  0
 11  3  1  0  0  0  0
 14  7  1  0  0  0  0
 17  8  1  0  0  0  0
 18  8  1  0  0  0  0
 19  8  1  0  0  0  0
 20  9  1  0  0  0  0
 22 10  1  0  0  0  0
M  END
