astex_1of1_05.xyz
 OpenBabel11041815263D

 34 36  0  0  1  0  0  0  0  0999 V2000
    2.8269    2.3085   -0.7474 O   0  0  0  0  0  0  0  0  0  0  0  0
    3.0268    0.9399   -1.0327 C   0  0  0  0  0  0  0  0  0  0  0  0
    2.7784    0.0111    0.1686 C   0  0  2  0  0  0  0  0  0  0  0  0
    2.4743   -1.3977   -0.3699 C   0  0  1  0  0  0  0  0  0  0  0  0
    2.7498   -2.4419    0.5643 O   0  0  0  0  0  0  0  0  0  0  0  0
    0.9621   -1.3961   -0.6282 C   0  0  0  0  0  0  0  0  0  0  0  0
    0.3949   -0.4019    0.3645 C   0  0  2  0  0  0  0  0  0  0  0  0
   -0.8857    0.1845    0.0881 N   0  0  0  0  0  0  0  0  0  0  0  0
   -0.9520    1.2544   -0.7847 C   0  0  0  0  0  0  0  0  0  0  0  0
    0.0270    1.7647   -1.3166 O   0  0  0  0  0  0  0  0  0  0  0  0
   -2.2319    1.7077   -1.0092 N   0  0  0  0  0  0  0  0  0  0  0  0
   -3.4392    1.2071   -0.5099 C   0  0  0  0  0  0  0  0  0  0  0  0
   -4.5029    1.7211   -0.8188 O   0  0  0  0  0  0  0  0  0  0  0  0
   -3.2783    0.0628    0.3727 C   0  0  0  0  0  0  0  0  0  0  0  0
   -2.0260   -0.3824    0.6190 C   0  0  0  0  0  0  0  0  0  0  0  0
   -4.5047   -0.5520    0.9601 C   0  0  0  0  0  0  0  0  0  0  0  0
    1.5279    0.4263    0.9015 C   0  0  1  0  0  0  0  0  0  0  0  0
    0.8188   -0.5598    1.7990 C   0  0  0  0  0  0  0  0  0  0  0  0
    1.8825    2.4570   -0.8901 H   0  0  0  0  0  0  0  0  0  0  0  0
    4.0594    0.8210   -1.3626 H   0  0  0  0  0  0  0  0  0  0  0  0
    2.3779    0.6313   -1.8560 H   0  0  0  0  0  0  0  0  0  0  0  0
    3.6555    0.0004    0.8206 H   0  0  0  0  0  0  0  0  0  0  0  0
    3.0260   -1.5837   -1.2963 H   0  0  0  0  0  0  0  0  0  0  0  0
    3.6822   -2.3780    0.7966 H   0  0  0  0  0  0  0  0  0  0  0  0
    0.5602   -2.4033   -0.5169 H   0  0  0  0  0  0  0  0  0  0  0  0
    0.7510   -1.0436   -1.6382 H   0  0  0  0  0  0  0  0  0  0  0  0
   -2.3022    2.4966   -1.6380 H   0  0  0  0  0  0  0  0  0  0  0  0
   -1.8336   -1.2246    1.2693 H   0  0  0  0  0  0  0  0  0  0  0  0
   -5.0555    0.1825    1.5457 H   0  0  0  0  0  0  0  0  0  0  0  0
   -5.1739   -0.8937    0.1720 H   0  0  0  0  0  0  0  0  0  0  0  0
   -4.2494   -1.3950    1.5984 H   0  0  0  0  0  0  0  0  0  0  0  0
    1.3770    1.4735    1.1105 H   0  0  0  0  0  0  0  0  0  0  0  0
    1.3080   -1.4809    2.0735 H   0  0  0  0  0  0  0  0  0  0  0  0
    0.1687   -0.1156    2.5394 H   0  0  0  0  0  0  0  0  0  0  0  0
  2  1  1  0  0  0  0
  2  3  1  0  0  0  0
  3 22  1  1  0  0  0
  3 17  1  0  0  0  0
  4 23  1  6  0  0  0
  4  3  1  0  0  0  0
  4  5  1  0  0  0  0
  5 24  1  0  0  0  0
  6 25  1  0  0  0  0
  6  4  1  0  0  0  0
  6  7  1  0  0  0  0
  7  8  1  6  0  0  0
  7 17  1  0  0  0  0
  7 18  1  0  0  0  0
  8 15  1  0  0  0  0
  9  8  1  0  0  0  0
 10  9  2  0  0  0  0
 11  9  1  0  0  0  0
 11 12  1  0  0  0  0
 12 14  1  0  0  0  0
 13 12  2  0  0  0  0
 14 15  2  0  0  0  0
 14 16  1  0  0  0  0
 15 28  1  0  0  0  0
 16 29  1  0  0  0  0
 16 31  1  0  0  0  0
 17 32  1  1  0  0  0
 17 18  1  0  0  0  0
 18 33  1  0  0  0  0
 18 34  1  0  0  0  0
 19  1  1  0  0  0  0
 20  2  1  0  0  0  0
 21  2  1  0  0  0  0
 26  6  1  0  0  0  0
 27 11  1  0  0  0  0
 30 16  1  0  0  0  0
M  END
