astex_1meh_02.xyz
 OpenBabel11041815263D

 43 44  0  0  0  0  0  0  0  0999 V2000
   -3.9427    2.1225    1.2485 C   0  0  0  0  0  0  0  0  0  0  0  0
   -4.3186    2.2506    2.3951 O   0  0  0  0  0  0  0  0  0  0  0  0
   -2.9771    1.1714    0.7186 C   0  0  0  0  0  0  0  0  0  0  0  0
   -2.8291    1.3711   -0.6413 C   0  0  0  0  0  0  0  0  0  0  0  0
   -3.7482    2.4993   -1.0133 C   0  0  0  0  0  0  0  0  0  0  0  0
   -4.3910    2.8954    0.2178 O   0  0  0  0  0  0  0  0  0  0  0  0
   -1.9462    0.6065   -1.3919 C   0  0  0  0  0  0  0  0  0  0  0  0
   -1.7413    0.8196   -2.8621 C   0  0  0  0  0  0  0  0  0  0  0  0
   -1.2329   -0.3684   -0.6707 C   0  0  0  0  0  0  0  0  0  0  0  0
   -1.3677   -0.5863    0.7130 C   0  0  0  0  0  0  0  0  0  0  0  0
   -2.2604    0.2172    1.4287 C   0  0  0  0  0  0  0  0  0  0  0  0
   -2.4066    0.0672    2.7663 O   0  0  0  0  0  0  0  0  0  0  0  0
   -0.5077   -1.5949    1.4265 C   0  0  0  0  0  0  0  0  0  0  0  0
    0.8051   -0.9544    1.7728 C   0  0  0  0  0  0  0  0  0  0  0  0
    2.0055   -1.2254    1.2355 C   0  0  0  0  0  0  0  0  0  0  0  0
    3.2033   -0.4110    1.6374 C   0  0  0  0  0  0  0  0  0  0  0  0
    3.7099    0.4447    0.4814 C   0  0  0  0  0  0  0  0  0  0  0  0
    4.8921    1.2881    0.8663 C   0  0  0  0  0  0  0  0  0  0  0  0
    5.4518    1.2859    1.9380 O   0  0  0  0  0  0  0  0  0  0  0  0
    5.2838    2.0834   -0.1606 O   0  0  0  0  0  0  0  0  0  0  0  0
    2.2572   -2.2885    0.2058 C   0  0  0  0  0  0  0  0  0  0  0  0
   -0.3057   -1.1403   -1.3395 O   0  0  0  0  0  0  0  0  0  0  0  0
   -0.9061   -2.2688   -1.9713 C   0  0  0  0  0  0  0  0  0  0  0  0
   -3.2203    3.3669   -1.4100 H   0  0  0  0  0  0  0  0  0  0  0  0
   -4.5261    2.2043   -1.7174 H   0  0  0  0  0  0  0  0  0  0  0  0
   -0.7640    0.4548   -3.1681 H   0  0  0  0  0  0  0  0  0  0  0  0
   -1.8079    1.8787   -3.1086 H   0  0  0  0  0  0  0  0  0  0  0  0
   -2.4983    0.2990   -3.4514 H   0  0  0  0  0  0  0  0  0  0  0  0
   -3.0723    0.7237    3.0449 H   0  0  0  0  0  0  0  0  0  0  0  0
   -0.3634   -2.4705    0.8000 H   0  0  0  0  0  0  0  0  0  0  0  0
   -1.0224   -1.9042    2.3364 H   0  0  0  0  0  0  0  0  0  0  0  0
    0.7457   -0.1573    2.5078 H   0  0  0  0  0  0  0  0  0  0  0  0
    2.9535    0.2363    2.4772 H   0  0  0  0  0  0  0  0  0  0  0  0
    4.0123   -1.0647    1.9707 H   0  0  0  0  0  0  0  0  0  0  0  0
    2.9234    1.1071    0.1157 H   0  0  0  0  0  0  0  0  0  0  0  0
    4.0107   -0.1659   -0.3711 H   0  0  0  0  0  0  0  0  0  0  0  0
    6.0439    2.5807    0.1768 H   0  0  0  0  0  0  0  0  0  0  0  0
    2.3792   -1.8492   -0.7854 H   0  0  0  0  0  0  0  0  0  0  0  0
    1.4471   -3.0095    0.1423 H   0  0  0  0  0  0  0  0  0  0  0  0
    3.1755   -2.8288    0.4429 H   0  0  0  0  0  0  0  0  0  0  0  0
   -1.4156   -2.8972   -1.2377 H   0  0  0  0  0  0  0  0  0  0  0  0
   -0.1024   -2.8301   -2.4394 H   0  0  0  0  0  0  0  0  0  0  0  0
   -1.6258   -1.9588   -2.7309 H   0  0  0  0  0  0  0  0  0  0  0  0
  1  2  2  0  0  0  0
  3  1  1  0  0  0  0
  3 11  1  0  0  0  0
  4  3  2  0  0  0  0
  5  4  1  0  0  0  0
  5  6  1  0  0  0  0
  6  1  1  0  0  0  0
  7  9  2  0  0  0  0
  7  4  1  0  0  0  0
  8  7  1  0  0  0  0
  9 10  1  0  0  0  0
 10 13  1  0  0  0  0
 10 11  2  0  0  0  0
 11 12  1  0  0  0  0
 12 29  1  0  0  0  0
 13 14  1  0  0  0  0
 13 31  1  0  0  0  0
 14 32  1  0  0  0  0
 15 16  1  0  0  0  0
 15 14  2  0  0  0  0
 16 34  1  0  0  0  0
 16 33  1  0  0  0  0
 17 18  1  0  0  0  0
 17 16  1  0  0  0  0
 18 19  2  0  0  0  0
 20 37  1  0  0  0  0
 20 18  1  0  0  0  0
 21 40  1  0  0  0  0
 21 15  1  0  0  0  0
 22  9  1  0  0  0  0
 23 22  1  0  0  0  0
 23 41  1  0  0  0  0
 24  5  1  0  0  0  0
 25  5  1  0  0  0  0
 26  8  1  0  0  0  0
 27  8  1  0  0  0  0
 28  8  1  0  0  0  0
 30 13  1  0  0  0  0
 35 17  1  0  0  0  0
 36 17  1  0  0  0  0
 38 21  1  0  0  0  0
 39 21  1  0  0  0  0
 42 23  1  0  0  0  0
 43 23  1  0  0  0  0
M  END
