astex_1meh_01.xyz
 OpenBabel11041815263D

 43 44  0  0  0  0  0  0  0  0999 V2000
   -4.1489    2.3716    1.0361 C   0  0  0  0  0  0  0  0  0  0  0  0
   -4.2269    2.8448    2.1508 O   0  0  0  0  0  0  0  0  0  0  0  0
   -3.2238    1.3590    0.5508 C   0  0  0  0  0  0  0  0  0  0  0  0
   -3.4801    1.0973   -0.7818 C   0  0  0  0  0  0  0  0  0  0  0  0
   -4.6242    1.9846   -1.1822 C   0  0  0  0  0  0  0  0  0  0  0  0
   -4.9660    2.7328    0.0051 O   0  0  0  0  0  0  0  0  0  0  0  0
   -2.7465    0.1541   -1.4880 C   0  0  0  0  0  0  0  0  0  0  0  0
   -3.0400   -0.1789   -2.9208 C   0  0  0  0  0  0  0  0  0  0  0  0
   -1.7323   -0.4944   -0.7567 C   0  0  0  0  0  0  0  0  0  0  0  0
   -1.4805   -0.2663    0.6099 C   0  0  0  0  0  0  0  0  0  0  0  0
   -2.2439    0.6965    1.2768 C   0  0  0  0  0  0  0  0  0  0  0  0
   -2.0253    0.9634    2.5866 O   0  0  0  0  0  0  0  0  0  0  0  0
   -0.4118   -1.0261    1.3468 C   0  0  0  0  0  0  0  0  0  0  0  0
    0.9054   -0.3123    1.2576 C   0  0  0  0  0  0  0  0  0  0  0  0
    2.0500   -0.7862    0.7374 C   0  0  0  0  0  0  0  0  0  0  0  0
    3.2864    0.0686    0.7363 C   0  0  0  0  0  0  0  0  0  0  0  0
    4.3904   -0.5200    1.6070 C   0  0  0  0  0  0  0  0  0  0  0  0
    5.6313    0.3277    1.6059 C   0  0  0  0  0  0  0  0  0  0  0  0
    5.8066    1.3325    0.9567 O   0  0  0  0  0  0  0  0  0  0  0  0
    6.5722   -0.1781    2.4403 O   0  0  0  0  0  0  0  0  0  0  0  0
    2.2016   -2.1583    0.1441 C   0  0  0  0  0  0  0  0  0  0  0  0
   -0.9649   -1.4504   -1.3865 O   0  0  0  0  0  0  0  0  0  0  0  0
    0.0470   -0.8702   -2.2142 C   0  0  0  0  0  0  0  0  0  0  0  0
   -5.5082    1.4274   -1.4932 H   0  0  0  0  0  0  0  0  0  0  0  0
   -4.3608    2.6979   -1.9630 H   0  0  0  0  0  0  0  0  0  0  0  0
   -4.1131   -0.1437   -3.1066 H   0  0  0  0  0  0  0  0  0  0  0  0
   -2.5674    0.5281   -3.6047 H   0  0  0  0  0  0  0  0  0  0  0  0
   -2.6819   -1.1766   -3.1627 H   0  0  0  0  0  0  0  0  0  0  0  0
   -2.6712    1.6503    2.8374 H   0  0  0  0  0  0  0  0  0  0  0  0
   -0.3456   -2.0345    0.9486 H   0  0  0  0  0  0  0  0  0  0  0  0
   -0.7095   -1.0933    2.3946 H   0  0  0  0  0  0  0  0  0  0  0  0
    0.9098    0.6970    1.6587 H   0  0  0  0  0  0  0  0  0  0  0  0
    3.6675    0.1731   -0.2829 H   0  0  0  0  0  0  0  0  0  0  0  0
    3.0498    1.0721    1.0884 H   0  0  0  0  0  0  0  0  0  0  0  0
    4.6796   -1.5175    1.2729 H   0  0  0  0  0  0  0  0  0  0  0  0
    4.0553   -0.6314    2.6394 H   0  0  0  0  0  0  0  0  0  0  0  0
    7.3278    0.4247    2.3717 H   0  0  0  0  0  0  0  0  0  0  0  0
    2.7116   -2.8336    0.8337 H   0  0  0  0  0  0  0  0  0  0  0  0
    1.2463   -2.6064   -0.1161 H   0  0  0  0  0  0  0  0  0  0  0  0
    2.8107   -2.1094   -0.7609 H   0  0  0  0  0  0  0  0  0  0  0  0
   -0.3918   -0.2512   -2.9973 H   0  0  0  0  0  0  0  0  0  0  0  0
    0.7293   -0.2680   -1.6131 H   0  0  0  0  0  0  0  0  0  0  0  0
    0.5858   -1.6971   -2.6678 H   0  0  0  0  0  0  0  0  0  0  0  0
  1  2  2  0  0  0  0
  3  1  1  0  0  0  0
  3 11  2  0  0  0  0
  4  3  1  0  0  0  0
  5  4  1  0  0  0  0
  5  6  1  0  0  0  0
  6  1  1  0  0  0  0
  7  4  2  0  0  0  0
  7  9  1  0  0  0  0
  8  7  1  0  0  0  0
  9 10  2  0  0  0  0
 10 11  1  0  0  0  0
 10 13  1  0  0  0  0
 11 12  1  0  0  0  0
 12 29  1  0  0  0  0
 13 31  1  0  0  0  0
 14 13  1  0  0  0  0
 14 32  1  0  0  0  0
 15 14  2  0  0  0  0
 16 15  1  0  0  0  0
 16 34  1  0  0  0  0
 16 17  1  0  0  0  0
 17 36  1  0  0  0  0
 18 17  1  0  0  0  0
 18 20  1  0  0  0  0
 19 18  2  0  0  0  0
 21 15  1  0  0  0  0
 21 38  1  0  0  0  0
 22  9  1  0  0  0  0
 23 42  1  0  0  0  0
 23 22  1  0  0  0  0
 24  5  1  0  0  0  0
 25  5  1  0  0  0  0
 26  8  1  0  0  0  0
 27  8  1  0  0  0  0
 28  8  1  0  0  0  0
 30 13  1  0  0  0  0
 33 16  1  0  0  0  0
 35 17  1  0  0  0  0
 37 20  1  0  0  0  0
 39 21  1  0  0  0  0
 40 21  1  0  0  0  0
 41 23  1  0  0  0  0
 43 23  1  0  0  0  0
M  END
