astex_1n2j_18.xyz
 OpenBabel11041815263D

 22 21  0  0  1  0  0  0  0  0999 V2000
    2.1317   -1.9535   -1.0513 O   0  0  0  0  0  0  0  0  0  0  0  0
    1.8817   -0.7862   -0.8607 C   0  0  0  0  0  0  0  0  0  0  0  0
    2.2556    0.1525   -1.7477 O   0  0  0  0  0  0  0  0  0  0  0  0
    1.1445   -0.3272    0.3906 C   0  0  2  0  0  0  0  0  0  0  0  0
    1.1314   -1.4009    1.3007 O   0  0  0  0  0  0  0  0  0  0  0  0
   -0.2910    0.1618    0.0949 C   0  0  0  0  0  0  0  0  0  0  0  0
   -1.1006   -0.9485   -0.5647 C   0  0  0  0  0  0  0  0  0  0  0  0
   -0.3046    1.4160   -0.7763 C   0  0  0  0  0  0  0  0  0  0  0  0
   -0.8969    0.5230    1.4599 C   0  0  0  0  0  0  0  0  0  0  0  0
   -2.2310    1.0037    1.3582 O   0  0  0  0  0  0  0  0  0  0  0  0
    1.9622    1.0163   -1.4317 H   0  0  0  0  0  0  0  0  0  0  0  0
    1.7033    0.5083    0.8319 H   0  0  0  0  0  0  0  0  0  0  0  0
    1.4817   -2.1530    0.7960 H   0  0  0  0  0  0  0  0  0  0  0  0
   -0.6838   -1.2200   -1.5352 H   0  0  0  0  0  0  0  0  0  0  0  0
   -2.1244   -0.6157   -0.7315 H   0  0  0  0  0  0  0  0  0  0  0  0
   -1.1150   -1.8402    0.0606 H   0  0  0  0  0  0  0  0  0  0  0  0
   -1.2954    1.8637   -0.7296 H   0  0  0  0  0  0  0  0  0  0  0  0
    0.4027    2.1662   -0.4087 H   0  0  0  0  0  0  0  0  0  0  0  0
   -0.0899    1.1953   -1.8213 H   0  0  0  0  0  0  0  0  0  0  0  0
   -0.3158    1.3358    1.9001 H   0  0  0  0  0  0  0  0  0  0  0  0
   -0.8329   -0.3374    2.1250 H   0  0  0  0  0  0  0  0  0  0  0  0
   -2.8133    0.2401    1.3408 H   0  0  0  0  0  0  0  0  0  0  0  0
  1  2  2  0  0  0  0
  2  4  1  0  0  0  0
  3 11  1  0  0  0  0
  3  2  1  0  0  0  0
  4 12  1  1  0  0  0
  4  5  1  0  0  0  0
  6  4  1  0  0  0  0
  6  9  1  0  0  0  0
  7 16  1  0  0  0  0
  7  6  1  0  0  0  0
  8 17  1  0  0  0  0
  8 18  1  0  0  0  0
  8  6  1  0  0  0  0
  9 20  1  0  0  0  0
  9 21  1  0  0  0  0
 10  9  1  0  0  0  0
 13  5  1  0  0  0  0
 14  7  1  0  0  0  0
 15  7  1  0  0  0  0
 19  8  1  0  0  0  0
 22 10  1  0  0  0  0
M  END
