astex_1n2j_11.xyz
 OpenBabel11041815263D

 22 21  0  0  1  0  0  0  0  0999 V2000
    2.2495    0.8579   -1.5464 O   0  0  0  0  0  0  0  0  0  0  0  0
    1.9263   -0.0958   -0.8798 C   0  0  0  0  0  0  0  0  0  0  0  0
    2.1986   -1.3754   -1.2435 O   0  0  0  0  0  0  0  0  0  0  0  0
    1.1504   -0.0414    0.4195 C   0  0  2  0  0  0  0  0  0  0  0  0
    1.4143   -1.1600    1.2453 O   0  0  0  0  0  0  0  0  0  0  0  0
   -0.3604    0.1498    0.1500 C   0  0  0  0  0  0  0  0  0  0  0  0
   -0.9271   -0.9955   -0.6820 C   0  0  0  0  0  0  0  0  0  0  0  0
   -0.6060    1.4845   -0.5473 C   0  0  0  0  0  0  0  0  0  0  0  0
   -1.0353    0.1636    1.5299 C   0  0  0  0  0  0  0  0  0  0  0  0
   -2.4382    0.3720    1.4632 O   0  0  0  0  0  0  0  0  0  0  0  0
    2.6750   -1.3157   -2.0854 H   0  0  0  0  0  0  0  0  0  0  0  0
    1.5107    0.8387    0.9546 H   0  0  0  0  0  0  0  0  0  0  0  0
    1.5417   -1.9197    0.6670 H   0  0  0  0  0  0  0  0  0  0  0  0
   -0.6738   -1.9615   -0.2451 H   0  0  0  0  0  0  0  0  0  0  0  0
   -0.5540   -0.9694   -1.7059 H   0  0  0  0  0  0  0  0  0  0  0  0
   -2.0122   -0.9171   -0.7096 H   0  0  0  0  0  0  0  0  0  0  0  0
   -1.6737    1.6208   -0.7180 H   0  0  0  0  0  0  0  0  0  0  0  0
   -0.2385    2.3176    0.0553 H   0  0  0  0  0  0  0  0  0  0  0  0
   -0.1107    1.5321   -1.5142 H   0  0  0  0  0  0  0  0  0  0  0  0
   -0.5544    0.9237    2.1561 H   0  0  0  0  0  0  0  0  0  0  0  0
   -0.8969   -0.8002    2.0109 H   0  0  0  0  0  0  0  0  0  0  0  0
   -2.5854    1.2913    1.2255 H   0  0  0  0  0  0  0  0  0  0  0  0
  1  2  2  0  0  0  0
  2  4  1  0  0  0  0
  3  2  1  0  0  0  0
  4 12  1  1  0  0  0
  4  5  1  0  0  0  0
  6  4  1  0  0  0  0
  6  9  1  0  0  0  0
  7 14  1  0  0  0  0
  7  6  1  0  0  0  0
  8 18  1  0  0  0  0
  8  6  1  0  0  0  0
  9 21  1  0  0  0  0
  9 20  1  0  0  0  0
 10  9  1  0  0  0  0
 11  3  1  0  0  0  0
 13  5  1  0  0  0  0
 15  7  1  0  0  0  0
 16  7  1  0  0  0  0
 17  8  1  0  0  0  0
 19  8  1  0  0  0  0
 22 10  1  0  0  0  0
M  END
