astex_1n2j_02.xyz
 OpenBabel11041815263D

 22 21  0  0  1  0  0  0  0  0999 V2000
    2.3764    0.8560    0.6917 O   0  0  0  0  0  0  0  0  0  0  0  0
    1.9527    0.2574   -0.2662 C   0  0  0  0  0  0  0  0  0  0  0  0
    2.5694    0.2921   -1.4768 O   0  0  0  0  0  0  0  0  0  0  0  0
    0.7437   -0.6691   -0.2859 C   0  0  2  0  0  0  0  0  0  0  0  0
    0.3990   -1.0488   -1.6143 O   0  0  0  0  0  0  0  0  0  0  0  0
   -0.5076   -0.0772    0.3881 C   0  0  0  0  0  0  0  0  0  0  0  0
   -1.6319   -1.1067    0.2788 C   0  0  0  0  0  0  0  0  0  0  0  0
   -0.2458    0.2084    1.8661 C   0  0  0  0  0  0  0  0  0  0  0  0
   -0.9176    1.2332   -0.2928 C   0  0  0  0  0  0  0  0  0  0  0  0
   -1.4081    1.0851   -1.6125 O   0  0  0  0  0  0  0  0  0  0  0  0
    3.3473    0.8579   -1.3551 H   0  0  0  0  0  0  0  0  0  0  0  0
    1.0501   -1.5532    0.2884 H   0  0  0  0  0  0  0  0  0  0  0  0
    1.2183   -1.1323   -2.1152 H   0  0  0  0  0  0  0  0  0  0  0  0
   -1.3544   -2.0255    0.7979 H   0  0  0  0  0  0  0  0  0  0  0  0
   -2.5303   -0.7083    0.7498 H   0  0  0  0  0  0  0  0  0  0  0  0
   -1.8659   -1.3456   -0.7535 H   0  0  0  0  0  0  0  0  0  0  0  0
   -1.1952    0.4250    2.3553 H   0  0  0  0  0  0  0  0  0  0  0  0
    0.4251    1.0501    2.0111 H   0  0  0  0  0  0  0  0  0  0  0  0
    0.1940   -0.6596    2.3586 H   0  0  0  0  0  0  0  0  0  0  0  0
   -0.0714    1.9312   -0.2600 H   0  0  0  0  0  0  0  0  0  0  0  0
   -1.7240    1.6820    0.2890 H   0  0  0  0  0  0  0  0  0  0  0  0
   -0.8237    0.4479   -2.0424 H   0  0  0  0  0  0  0  0  0  0  0  0
  2  1  2  0  0  0  0
  3 11  1  0  0  0  0
  3  2  1  0  0  0  0
  4  2  1  0  0  0  0
  4 12  1  1  0  0  0
  4  6  1  0  0  0  0
  5  4  1  0  0  0  0
  6  8  1  0  0  0  0
  7  6  1  0  0  0  0
  7 15  1  0  0  0  0
  7 14  1  0  0  0  0
  8 18  1  0  0  0  0
  8 17  1  0  0  0  0
  8 19  1  0  0  0  0
  9 20  1  0  0  0  0
  9 21  1  0  0  0  0
  9  6  1  0  0  0  0
 10  9  1  0  0  0  0
 13  5  1  0  0  0  0
 16  7  1  0  0  0  0
 22 10  1  0  0  0  0
M  END
