astex_1of1_11.xyz
 OpenBabel11041815263D

 34 36  0  0  1  0  0  0  0  0999 V2000
    3.8705    2.1476   -0.0302 O   0  0  0  0  0  0  0  0  0  0  0  0
    3.4393    0.9863   -0.7254 C   0  0  0  0  0  0  0  0  0  0  0  0
    2.6340    0.0359    0.1390 C   0  0  2  0  0  0  0  0  0  0  0  0
    2.1817   -1.2065   -0.6548 C   0  0  1  0  0  0  0  0  0  0  0  0
    3.1167   -2.2753   -0.6380 O   0  0  0  0  0  0  0  0  0  0  0  0
    0.8735   -1.6523   -0.0025 C   0  0  0  0  0  0  0  0  0  0  0  0
    0.2505   -0.3642    0.5124 C   0  0  2  0  0  0  0  0  0  0  0  0
   -1.0481    0.0179    0.0401 N   0  0  0  0  0  0  0  0  0  0  0  0
   -1.1394    0.4442   -1.2767 C   0  0  0  0  0  0  0  0  0  0  0  0
   -0.1771    0.5262   -2.0232 O   0  0  0  0  0  0  0  0  0  0  0  0
   -2.4233    0.7681   -1.6620 N   0  0  0  0  0  0  0  0  0  0  0  0
   -3.6087    0.6643   -0.9288 C   0  0  0  0  0  0  0  0  0  0  0  0
   -4.6799    0.9809   -1.4241 O   0  0  0  0  0  0  0  0  0  0  0  0
   -3.4233    0.1550    0.4209 C   0  0  0  0  0  0  0  0  0  0  0  0
   -2.1678   -0.1423    0.8263 C   0  0  0  0  0  0  0  0  0  0  0  0
   -4.6302   -0.0099    1.2835 C   0  0  0  0  0  0  0  0  0  0  0  0
    1.3483    0.6666    0.6288 C   0  0  1  0  0  0  0  0  0  0  0  0
    0.6883    0.1134    1.8664 C   0  0  0  0  0  0  0  0  0  0  0  0
    4.4258    1.8558    0.6990 H   0  0  0  0  0  0  0  0  0  0  0  0
    2.8084    1.3440   -1.5392 H   0  0  0  0  0  0  0  0  0  0  0  0
    4.2901    0.4551   -1.1669 H   0  0  0  0  0  0  0  0  0  0  0  0
    3.2520   -0.3108    0.9747 H   0  0  0  0  0  0  0  0  0  0  0  0
    1.9624   -0.8930   -1.6788 H   0  0  0  0  0  0  0  0  0  0  0  0
    3.7526   -2.1246   -1.3426 H   0  0  0  0  0  0  0  0  0  0  0  0
    1.0984   -2.3461    0.8100 H   0  0  0  0  0  0  0  0  0  0  0  0
    0.2180   -2.1563   -0.7096 H   0  0  0  0  0  0  0  0  0  0  0  0
   -2.5154    1.0942   -2.6147 H   0  0  0  0  0  0  0  0  0  0  0  0
   -1.9622   -0.5250    1.8163 H   0  0  0  0  0  0  0  0  0  0  0  0
   -5.3416   -0.6905    0.8182 H   0  0  0  0  0  0  0  0  0  0  0  0
   -5.1416    0.9432    1.4097 H   0  0  0  0  0  0  0  0  0  0  0  0
   -4.3580   -0.3980    2.2627 H   0  0  0  0  0  0  0  0  0  0  0  0
    1.1398    1.6967    0.3800 H   0  0  0  0  0  0  0  0  0  0  0  0
    1.2374   -0.5866    2.4815 H   0  0  0  0  0  0  0  0  0  0  0  0
    0.0290    0.7862    2.3965 H   0  0  0  0  0  0  0  0  0  0  0  0
  1 19  1  0  0  0  0
  2  1  1  0  0  0  0
  2  3  1  0  0  0  0
  3 17  1  0  0  0  0
  3 22  1  1  0  0  0
  4 23  1  6  0  0  0
  4  5  1  0  0  0  0
  4  6  1  0  0  0  0
  4  3  1  0  0  0  0
  6  7  1  0  0  0  0
  6 25  1  0  0  0  0
  7  8  1  6  0  0  0
  7 17  1  0  0  0  0
  7 18  1  0  0  0  0
  8 15  1  0  0  0  0
  9  8  1  0  0  0  0
 10  9  2  0  0  0  0
 11  9  1  0  0  0  0
 11 12  1  0  0  0  0
 12 14  1  0  0  0  0
 13 12  2  0  0  0  0
 14 15  2  0  0  0  0
 14 16  1  0  0  0  0
 15 28  1  0  0  0  0
 16 30  1  0  0  0  0
 16 31  1  0  0  0  0
 17 32  1  6  0  0  0
 17 18  1  0  0  0  0
 18 34  1  0  0  0  0
 18 33  1  0  0  0  0
 20  2  1  0  0  0  0
 21  2  1  0  0  0  0
 24  5  1  0  0  0  0
 26  6  1  0  0  0  0
 27 11  1  0  0  0  0
 29 16  1  0  0  0  0
M  END
