astex_1of1_02.xyz
 OpenBabel11041815263D

 34 36  0  0  1  0  0  0  0  0999 V2000
    2.8865    2.4050   -0.1328 O   0  0  0  0  0  0  0  0  0  0  0  0
    3.1098    1.1149   -0.6632 C   0  0  0  0  0  0  0  0  0  0  0  0
    2.7939   -0.0255    0.3207 C   0  0  2  0  0  0  0  0  0  0  0  0
    2.5210   -1.2968   -0.4914 C   0  0  1  0  0  0  0  0  0  0  0  0
    2.8564   -2.4291    0.3100 O   0  0  0  0  0  0  0  0  0  0  0  0
    1.0182   -1.2270   -0.8279 C   0  0  0  0  0  0  0  0  0  0  0  0
    0.3997   -0.4453    0.3119 C   0  0  2  0  0  0  0  0  0  0  0  0
   -0.8670    0.1937    0.0939 N   0  0  0  0  0  0  0  0  0  0  0  0
   -0.8912    1.4063   -0.5702 C   0  0  0  0  0  0  0  0  0  0  0  0
    0.1124    1.9924   -0.9581 O   0  0  0  0  0  0  0  0  0  0  0  0
   -2.1585    1.9079   -0.7621 N   0  0  0  0  0  0  0  0  0  0  0  0
   -3.3882    1.3398   -0.4122 C   0  0  0  0  0  0  0  0  0  0  0  0
   -4.4356    1.9141   -0.6658 O   0  0  0  0  0  0  0  0  0  0  0  0
   -3.2703    0.0527    0.2537 C   0  0  0  0  0  0  0  0  0  0  0  0
   -2.0315   -0.4454    0.4659 C   0  0  0  0  0  0  0  0  0  0  0  0
   -4.5231   -0.6430    0.6703 C   0  0  0  0  0  0  0  0  0  0  0  0
    1.5043    0.2560    1.0506 C   0  0  1  0  0  0  0  0  0  0  0  0
    0.7561   -0.8781    1.7080 C   0  0  0  0  0  0  0  0  0  0  0  0
    1.9516    2.5848   -0.2982 H   0  0  0  0  0  0  0  0  0  0  0  0
    4.1612    1.0535   -0.9447 H   0  0  0  0  0  0  0  0  0  0  0  0
    2.5140    0.9773   -1.5692 H   0  0  0  0  0  0  0  0  0  0  0  0
    3.6306   -0.1893    0.9997 H   0  0  0  0  0  0  0  0  0  0  0  0
    3.1227   -1.3047   -1.4049 H   0  0  0  0  0  0  0  0  0  0  0  0
    2.7418   -3.2137   -0.2361 H   0  0  0  0  0  0  0  0  0  0  0  0
    0.5925   -2.2251   -0.9494 H   0  0  0  0  0  0  0  0  0  0  0  0
    0.8652   -0.6737   -1.7560 H   0  0  0  0  0  0  0  0  0  0  0  0
   -2.1979    2.7996   -1.2377 H   0  0  0  0  0  0  0  0  0  0  0  0
   -1.8714   -1.3934    0.9608 H   0  0  0  0  0  0  0  0  0  0  0  0
   -5.1600   -0.8301   -0.1929 H   0  0  0  0  0  0  0  0  0  0  0  0
   -5.0952   -0.0189    1.3553 H   0  0  0  0  0  0  0  0  0  0  0  0
   -4.2987   -1.5896    1.1570 H   0  0  0  0  0  0  0  0  0  0  0  0
    1.3407    1.2454    1.4473 H   0  0  0  0  0  0  0  0  0  0  0  0
    0.0684   -0.5811    2.4873 H   0  0  0  0  0  0  0  0  0  0  0  0
    1.2417   -1.8335    1.8286 H   0  0  0  0  0  0  0  0  0  0  0  0
  2  1  1  0  0  0  0
  2  3  1  0  0  0  0
  3 22  1  1  0  0  0
  3 17  1  0  0  0  0
  4 23  1  6  0  0  0
  4  5  1  0  0  0  0
  4  3  1  0  0  0  0
  6  4  1  0  0  0  0
  6  7  1  0  0  0  0
  7  8  1  6  0  0  0
  7 17  1  0  0  0  0
  7 18  1  0  0  0  0
  8 15  1  0  0  0  0
  9  8  1  0  0  0  0
 10  9  2  0  0  0  0
 11  9  1  0  0  0  0
 11 12  1  0  0  0  0
 12 14  1  0  0  0  0
 13 12  2  0  0  0  0
 14 15  2  0  0  0  0
 14 16  1  0  0  0  0
 15 28  1  0  0  0  0
 16 31  1  0  0  0  0
 16 30  1  0  0  0  0
 17 32  1  1  0  0  0
 17 18  1  0  0  0  0
 18 34  1  0  0  0  0
 18 33  1  0  0  0  0
 19  1  1  0  0  0  0
 20  2  1  0  0  0  0
 21  2  1  0  0  0  0
 24  5  1  0  0  0  0
 25  6  1  0  0  0  0
 26  6  1  0  0  0  0
 27 11  1  0  0  0  0
 29 16  1  0  0  0  0
M  END
