astex_1of1_08.xyz
 OpenBabel11041815263D

 34 36  0  0  1  0  0  0  0  0999 V2000
    3.6222    1.8624   -1.0290 O   0  0  0  0  0  0  0  0  0  0  0  0
    2.4213    1.6337   -0.3036 C   0  0  0  0  0  0  0  0  0  0  0  0
    2.4996    0.2377    0.2854 C   0  0  2  0  0  0  0  0  0  0  0  0
    2.4696   -0.8271   -0.8324 C   0  0  1  0  0  0  0  0  0  0  0  0
    3.1543   -2.0234   -0.4645 O   0  0  0  0  0  0  0  0  0  0  0  0
    0.9905   -1.1777   -1.0203 C   0  0  0  0  0  0  0  0  0  0  0  0
    0.3376   -0.8959    0.3144 C   0  0  2  0  0  0  0  0  0  0  0  0
   -1.0775   -0.6632    0.3435 N   0  0  0  0  0  0  0  0  0  0  0  0
   -1.9115   -1.7746    0.3857 C   0  0  0  0  0  0  0  0  0  0  0  0
   -1.5039   -2.9194    0.4459 O   0  0  0  0  0  0  0  0  0  0  0  0
   -3.2553   -1.4494    0.3575 N   0  0  0  0  0  0  0  0  0  0  0  0
   -3.8506   -0.1946    0.2198 C   0  0  0  0  0  0  0  0  0  0  0  0
   -5.0668   -0.0759    0.1884 O   0  0  0  0  0  0  0  0  0  0  0  0
   -2.8985    0.9009    0.1190 C   0  0  0  0  0  0  0  0  0  0  0  0
   -1.5797    0.6082    0.1807 C   0  0  0  0  0  0  0  0  0  0  0  0
   -3.4308    2.2861   -0.0394 C   0  0  0  0  0  0  0  0  0  0  0  0
    1.2796   -0.0388    1.1322 C   0  0  1  0  0  0  0  0  0  0  0  0
    0.9937   -1.4674    1.5295 C   0  0  0  0  0  0  0  0  0  0  0  0
    3.5642    2.7296   -1.4395 H   0  0  0  0  0  0  0  0  0  0  0  0
    2.3013    2.3647    0.5017 H   0  0  0  0  0  0  0  0  0  0  0  0
    1.5446    1.7056   -0.9588 H   0  0  0  0  0  0  0  0  0  0  0  0
    3.4324    0.1589    0.8488 H   0  0  0  0  0  0  0  0  0  0  0  0
    2.9032   -0.4198   -1.7464 H   0  0  0  0  0  0  0  0  0  0  0  0
    4.0865   -1.7993   -0.3737 H   0  0  0  0  0  0  0  0  0  0  0  0
    0.8781   -2.2132   -1.3375 H   0  0  0  0  0  0  0  0  0  0  0  0
    0.5425   -0.5313   -1.7779 H   0  0  0  0  0  0  0  0  0  0  0  0
   -3.8847   -2.2396    0.3999 H   0  0  0  0  0  0  0  0  0  0  0  0
   -0.8228    1.3783    0.1182 H   0  0  0  0  0  0  0  0  0  0  0  0
   -2.6200    3.0092   -0.1015 H   0  0  0  0  0  0  0  0  0  0  0  0
   -4.0735    2.5468    0.8002 H   0  0  0  0  0  0  0  0  0  0  0  0
   -4.0411    2.3607   -0.9383 H   0  0  0  0  0  0  0  0  0  0  0  0
    0.8909    0.7409    1.7743 H   0  0  0  0  0  0  0  0  0  0  0  0
    1.7549   -2.2163    1.3798 H   0  0  0  0  0  0  0  0  0  0  0  0
    0.3495   -1.5966    2.3862 H   0  0  0  0  0  0  0  0  0  0  0  0
  1  2  1  0  0  0  0
  2  3  1  0  0  0  0
  2 20  1  0  0  0  0
  3 22  1  1  0  0  0
  3 17  1  0  0  0  0
  4 23  1  6  0  0  0
  4  5  1  0  0  0  0
  4  3  1  0  0  0  0
  5 24  1  0  0  0  0
  6  4  1  0  0  0  0
  6  7  1  0  0  0  0
  7  8  1  1  0  0  0
  7 17  1  0  0  0  0
  7 18  1  0  0  0  0
  8  9  1  0  0  0  0
  9 10  2  0  0  0  0
 11  9  1  0  0  0  0
 11 27  1  0  0  0  0
 12 11  1  0  0  0  0
 13 12  2  0  0  0  0
 14 15  2  0  0  0  0
 14 12  1  0  0  0  0
 15  8  1  0  0  0  0
 16 14  1  0  0  0  0
 16 30  1  0  0  0  0
 17 18  1  0  0  0  0
 17 32  1  1  0  0  0
 18 34  1  0  0  0  0
 19  1  1  0  0  0  0
 21  2  1  0  0  0  0
 25  6  1  0  0  0  0
 26  6  1  0  0  0  0
 28 15  1  0  0  0  0
 29 16  1  0  0  0  0
 31 16  1  0  0  0  0
 33 18  1  0  0  0  0
M  END
