astex_1meh_24.xyz
 OpenBabel11041815263D

 43 44  0  0  0  0  0  0  0  0999 V2000
   -3.5313    1.9981    1.3286 C   0  0  0  0  0  0  0  0  0  0  0  0
   -3.3892    2.2693    2.4893 O   0  0  0  0  0  0  0  0  0  0  0  0
   -2.7263    1.1477    0.4270 C   0  0  0  0  0  0  0  0  0  0  0  0
   -3.3093    1.1536   -0.8300 C   0  0  0  0  0  0  0  0  0  0  0  0
   -4.5254    2.0262   -0.7634 C   0  0  0  0  0  0  0  0  0  0  0  0
   -4.5848    2.4947    0.5861 O   0  0  0  0  0  0  0  0  0  0  0  0
   -2.7810    0.4617   -1.9120 C   0  0  0  0  0  0  0  0  0  0  0  0
   -3.4096    0.5090   -3.2726 C   0  0  0  0  0  0  0  0  0  0  0  0
   -1.6151   -0.2705   -1.6506 C   0  0  0  0  0  0  0  0  0  0  0  0
   -0.9970   -0.3025   -0.3878 C   0  0  0  0  0  0  0  0  0  0  0  0
   -1.5534    0.4354    0.6696 C   0  0  0  0  0  0  0  0  0  0  0  0
   -1.0077    0.4460    1.9107 O   0  0  0  0  0  0  0  0  0  0  0  0
    0.2473   -1.1215   -0.1522 C   0  0  0  0  0  0  0  0  0  0  0  0
    1.3949   -0.2629    0.2973 C   0  0  0  0  0  0  0  0  0  0  0  0
    2.1097   -0.3779    1.4337 C   0  0  0  0  0  0  0  0  0  0  0  0
    3.2388    0.5758    1.7074 C   0  0  0  0  0  0  0  0  0  0  0  0
    4.5898   -0.1313    1.7244 C   0  0  0  0  0  0  0  0  0  0  0  0
    5.7322    0.8311    1.9677 C   0  0  0  0  0  0  0  0  0  0  0  0
    5.6065    2.0124    2.1543 O   0  0  0  0  0  0  0  0  0  0  0  0
    6.9699    0.2658    1.9663 O   0  0  0  0  0  0  0  0  0  0  0  0
    1.8765   -1.4351    2.4780 C   0  0  0  0  0  0  0  0  0  0  0  0
   -1.0285   -0.9789   -2.6804 O   0  0  0  0  0  0  0  0  0  0  0  0
   -1.6232   -2.2649   -2.8425 C   0  0  0  0  0  0  0  0  0  0  0  0
   -5.4460    1.4840   -0.9845 H   0  0  0  0  0  0  0  0  0  0  0  0
   -4.4588    2.8885   -1.4290 H   0  0  0  0  0  0  0  0  0  0  0  0
   -3.7820    1.5102   -3.4875 H   0  0  0  0  0  0  0  0  0  0  0  0
   -4.2567   -0.1755   -3.3452 H   0  0  0  0  0  0  0  0  0  0  0  0
   -2.6871    0.2381   -4.0382 H   0  0  0  0  0  0  0  0  0  0  0  0
   -0.0615    0.2491    1.8129 H   0  0  0  0  0  0  0  0  0  0  0  0
    0.5153   -1.6104   -1.0882 H   0  0  0  0  0  0  0  0  0  0  0  0
    0.0365   -1.9033    0.5792 H   0  0  0  0  0  0  0  0  0  0  0  0
    1.6526    0.5481   -0.3774 H   0  0  0  0  0  0  0  0  0  0  0  0
    3.0925    1.0655    2.6725 H   0  0  0  0  0  0  0  0  0  0  0  0
    3.2609    1.3628    0.9552 H   0  0  0  0  0  0  0  0  0  0  0  0
    4.6238   -0.8976    2.5023 H   0  0  0  0  0  0  0  0  0  0  0  0
    4.7607   -0.6411    0.7724 H   0  0  0  0  0  0  0  0  0  0  0  0
    6.8817   -0.6795    1.7998 H   0  0  0  0  0  0  0  0  0  0  0  0
    1.9816   -1.0065    3.4757 H   0  0  0  0  0  0  0  0  0  0  0  0
    0.8906   -1.8883    2.4109 H   0  0  0  0  0  0  0  0  0  0  0  0
    2.6119   -2.2370    2.3932 H   0  0  0  0  0  0  0  0  0  0  0  0
   -1.1203   -2.7400   -3.6798 H   0  0  0  0  0  0  0  0  0  0  0  0
   -1.4898   -2.8685   -1.9420 H   0  0  0  0  0  0  0  0  0  0  0  0
   -2.6898   -2.1800   -3.0563 H   0  0  0  0  0  0  0  0  0  0  0  0
  1  2  2  0  0  0  0
  3 11  1  0  0  0  0
  3  1  1  0  0  0  0
  4  5  1  0  0  0  0
  4  3  2  0  0  0  0
  5  6  1  0  0  0  0
  6  1  1  0  0  0  0
  7  9  2  0  0  0  0
  7  4  1  0  0  0  0
  8  7  1  0  0  0  0
  9 10  1  0  0  0  0
 10 13  1  0  0  0  0
 10 11  2  0  0  0  0
 11 12  1  0  0  0  0
 13 14  1  0  0  0  0
 13 31  1  0  0  0  0
 14 15  2  0  0  0  0
 15 16  1  0  0  0  0
 15 21  1  0  0  0  0
 16 17  1  0  0  0  0
 16 33  1  0  0  0  0
 17 18  1  0  0  0  0
 17 35  1  0  0  0  0
 18 19  2  0  0  0  0
 20 18  1  0  0  0  0
 21 38  1  0  0  0  0
 22  9  1  0  0  0  0
 23 22  1  0  0  0  0
 23 42  1  0  0  0  0
 24  5  1  0  0  0  0
 25  5  1  0  0  0  0
 26  8  1  0  0  0  0
 27  8  1  0  0  0  0
 28  8  1  0  0  0  0
 29 12  1  0  0  0  0
 30 13  1  0  0  0  0
 32 14  1  0  0  0  0
 34 16  1  0  0  0  0
 36 17  1  0  0  0  0
 37 20  1  0  0  0  0
 39 21  1  0  0  0  0
 40 21  1  0  0  0  0
 41 23  1  0  0  0  0
 43 23  1  0  0  0  0
M  END
