astex_1of1_07.xyz
 OpenBabel11041815263D

 34 36  0  0  1  0  0  0  0  0999 V2000
    2.8416    2.3865   -0.5669 O   0  0  0  0  0  0  0  0  0  0  0  0
    3.0789    1.0311   -0.8860 C   0  0  0  0  0  0  0  0  0  0  0  0
    2.7974    0.0600    0.2742 C   0  0  2  0  0  0  0  0  0  0  0  0
    2.5344   -1.3293   -0.3181 C   0  0  1  0  0  0  0  0  0  0  0  0
    2.9003   -2.3133    0.6486 O   0  0  0  0  0  0  0  0  0  0  0  0
    1.0257   -1.3360   -0.6358 C   0  0  0  0  0  0  0  0  0  0  0  0
    0.4109   -0.3896    0.3737 C   0  0  2  0  0  0  0  0  0  0  0  0
   -0.8696    0.1878    0.0776 N   0  0  0  0  0  0  0  0  0  0  0  0
   -0.9232    1.2767   -0.7732 C   0  0  0  0  0  0  0  0  0  0  0  0
    0.0649    1.8063   -1.2674 O   0  0  0  0  0  0  0  0  0  0  0  0
   -2.2012    1.7230   -1.0219 N   0  0  0  0  0  0  0  0  0  0  0  0
   -3.4161    1.2010   -0.5651 C   0  0  0  0  0  0  0  0  0  0  0  0
   -4.4766    1.7112   -0.8911 O   0  0  0  0  0  0  0  0  0  0  0  0
   -3.2674    0.0402    0.2979 C   0  0  0  0  0  0  0  0  0  0  0  0
   -2.0177   -0.3994    0.5672 C   0  0  0  0  0  0  0  0  0  0  0  0
   -4.5028   -0.5964    0.8417 C   0  0  0  0  0  0  0  0  0  0  0  0
    1.5141    0.4368    0.9715 C   0  0  1  0  0  0  0  0  0  0  0  0
    0.7949   -0.5876    1.8148 C   0  0  0  0  0  0  0  0  0  0  0  0
    1.9014    2.5237   -0.7425 H   0  0  0  0  0  0  0  0  0  0  0  0
    2.4724    0.7403   -1.7475 H   0  0  0  0  0  0  0  0  0  0  0  0
    4.1270    0.9404   -1.1722 H   0  0  0  0  0  0  0  0  0  0  0  0
    3.6469    0.0201    0.9559 H   0  0  0  0  0  0  0  0  0  0  0  0
    3.1226   -1.4755   -1.2288 H   0  0  0  0  0  0  0  0  0  0  0  0
    2.8000   -3.1766    0.2343 H   0  0  0  0  0  0  0  0  0  0  0  0
    0.6156   -2.3468   -0.5867 H   0  0  0  0  0  0  0  0  0  0  0  0
    0.8495   -0.9424   -1.6382 H   0  0  0  0  0  0  0  0  0  0  0  0
   -2.2625    2.5251   -1.6349 H   0  0  0  0  0  0  0  0  0  0  0  0
   -1.8346   -1.2525    1.2059 H   0  0  0  0  0  0  0  0  0  0  0  0
   -5.0748    0.1218    1.4272 H   0  0  0  0  0  0  0  0  0  0  0  0
   -5.1490   -0.9282    0.0305 H   0  0  0  0  0  0  0  0  0  0  0  0
   -4.2563   -1.4495    1.4700 H   0  0  0  0  0  0  0  0  0  0  0  0
    1.3407    1.4748    1.2069 H   0  0  0  0  0  0  0  0  0  0  0  0
    1.2983   -1.5044    2.0782 H   0  0  0  0  0  0  0  0  0  0  0  0
    0.1141   -0.1797    2.5486 H   0  0  0  0  0  0  0  0  0  0  0  0
  2  1  1  0  0  0  0
  2  3  1  0  0  0  0
  3 22  1  1  0  0  0
  3 17  1  0  0  0  0
  4 23  1  6  0  0  0
  4  3  1  0  0  0  0
  4  5  1  0  0  0  0
  6 25  1  0  0  0  0
  6  4  1  0  0  0  0
  6  7  1  0  0  0  0
  7  8  1  6  0  0  0
  7 17  1  0  0  0  0
  7 18  1  0  0  0  0
  8 15  1  0  0  0  0
  9  8  1  0  0  0  0
 10  9  2  0  0  0  0
 11  9  1  0  0  0  0
 11 12  1  0  0  0  0
 12 14  1  0  0  0  0
 13 12  2  0  0  0  0
 14 15  2  0  0  0  0
 14 16  1  0  0  0  0
 15 28  1  0  0  0  0
 16 29  1  0  0  0  0
 16 31  1  0  0  0  0
 17 32  1  1  0  0  0
 17 18  1  0  0  0  0
 18 33  1  0  0  0  0
 18 34  1  0  0  0  0
 19  1  1  0  0  0  0
 20  2  1  0  0  0  0
 21  2  1  0  0  0  0
 24  5  1  0  0  0  0
 26  6  1  0  0  0  0
 27 11  1  0  0  0  0
 30 16  1  0  0  0  0
M  END
