astex_1n2j_01.xyz
 OpenBabel11041815263D

 22 21  0  0  1  0  0  0  0  0999 V2000
    1.9608    1.0816    1.4554 O   0  0  0  0  0  0  0  0  0  0  0  0
    1.8945    0.4824    0.4043 C   0  0  0  0  0  0  0  0  0  0  0  0
    2.7248    0.7331   -0.6147 O   0  0  0  0  0  0  0  0  0  0  0  0
    0.8560   -0.5996    0.1251 C   0  0  2  0  0  0  0  0  0  0  0  0
    1.2333   -1.3344   -1.0472 O   0  0  0  0  0  0  0  0  0  0  0  0
   -0.5516   -0.0161   -0.0902 C   0  0  0  0  0  0  0  0  0  0  0  0
   -1.5343   -1.1831   -0.1304 C   0  0  0  0  0  0  0  0  0  0  0  0
   -0.6113    0.7805   -1.3894 C   0  0  0  0  0  0  0  0  0  0  0  0
   -0.9203    0.9144    1.0728 C   0  0  0  0  0  0  0  0  0  0  0  0
   -0.6579    0.3512    2.3464 O   0  0  0  0  0  0  0  0  0  0  0  0
    2.4844    0.0802   -1.2986 H   0  0  0  0  0  0  0  0  0  0  0  0
    0.8226   -1.2490    0.9995 H   0  0  0  0  0  0  0  0  0  0  0  0
    1.6989   -2.1280   -0.7654 H   0  0  0  0  0  0  0  0  0  0  0  0
   -1.2437   -1.9140   -0.8828 H   0  0  0  0  0  0  0  0  0  0  0  0
   -2.5318   -0.8187   -0.3761 H   0  0  0  0  0  0  0  0  0  0  0  0
   -1.5805   -1.6689    0.8442 H   0  0  0  0  0  0  0  0  0  0  0  0
    0.1190    1.5910   -1.4001 H   0  0  0  0  0  0  0  0  0  0  0  0
   -0.4319    0.1392   -2.2503 H   0  0  0  0  0  0  0  0  0  0  0  0
   -1.6012    1.2242   -1.5000 H   0  0  0  0  0  0  0  0  0  0  0  0
   -1.9930    1.1043    1.0170 H   0  0  0  0  0  0  0  0  0  0  0  0
   -0.4079    1.8725    0.9610 H   0  0  0  0  0  0  0  0  0  0  0  0
    0.2709    0.5572    2.5197 H   0  0  0  0  0  0  0  0  0  0  0  0
  2  1  2  0  0  0  0
  3  2  1  0  0  0  0
  4  2  1  0  0  0  0
  4 12  1  1  0  0  0
  5 13  1  0  0  0  0
  5  4  1  0  0  0  0
  6  4  1  0  0  0  0
  6  9  1  0  0  0  0
  7  6  1  0  0  0  0
  7 16  1  0  0  0  0
  8  6  1  0  0  0  0
  9 10  1  0  0  0  0
 10 22  1  0  0  0  0
 11  3  1  0  0  0  0
 14  7  1  0  0  0  0
 15  7  1  0  0  0  0
 17  8  1  0  0  0  0
 18  8  1  0  0  0  0
 19  8  1  0  0  0  0
 20  9  1  0  0  0  0
 21  9  1  0  0  0  0
M  END
