astex_1n2j_15.xyz
 OpenBabel11041815263D

 22 21  0  0  1  0  0  0  0  0999 V2000
    2.2231    1.3019    1.0320 O   0  0  0  0  0  0  0  0  0  0  0  0
    2.0967    0.5140    0.1259 C   0  0  0  0  0  0  0  0  0  0  0  0
    2.8199    0.5928   -0.9997 O   0  0  0  0  0  0  0  0  0  0  0  0
    1.0795   -0.6218    0.1571 C   0  0  2  0  0  0  0  0  0  0  0  0
    1.4073   -1.4842   -0.9318 O   0  0  0  0  0  0  0  0  0  0  0  0
   -0.3655   -0.0900    0.0782 C   0  0  0  0  0  0  0  0  0  0  0  0
   -1.3189   -1.2676   -0.1295 C   0  0  0  0  0  0  0  0  0  0  0  0
   -0.5163    0.9052   -1.0686 C   0  0  0  0  0  0  0  0  0  0  0  0
   -0.7192    0.5750    1.4159 C   0  0  0  0  0  0  0  0  0  0  0  0
   -2.0614    1.0494    1.4299 O   0  0  0  0  0  0  0  0  0  0  0  0
    2.5610   -0.1748   -1.5389 H   0  0  0  0  0  0  0  0  0  0  0  0
    1.2134   -1.1468    1.1075 H   0  0  0  0  0  0  0  0  0  0  0  0
    0.6901   -2.1153   -1.0442 H   0  0  0  0  0  0  0  0  0  0  0  0
   -2.3405   -0.9243    0.0181 H   0  0  0  0  0  0  0  0  0  0  0  0
   -1.2569   -1.6726   -1.1412 H   0  0  0  0  0  0  0  0  0  0  0  0
   -1.1257   -2.0680    0.5883 H   0  0  0  0  0  0  0  0  0  0  0  0
    0.0660    1.8103   -0.8902 H   0  0  0  0  0  0  0  0  0  0  0  0
   -1.5625    1.1852   -1.1810 H   0  0  0  0  0  0  0  0  0  0  0  0
   -0.1845    0.4663   -2.0092 H   0  0  0  0  0  0  0  0  0  0  0  0
   -0.6452   -0.1687    2.2115 H   0  0  0  0  0  0  0  0  0  0  0  0
   -0.0122    1.3721    1.6380 H   0  0  0  0  0  0  0  0  0  0  0  0
   -2.0483    1.9619    1.1320 H   0  0  0  0  0  0  0  0  0  0  0  0
  2  4  1  0  0  0  0
  2  1  2  0  0  0  0
  3  2  1  0  0  0  0
  4 12  1  1  0  0  0
  5  4  1  0  0  0  0
  6  4  1  0  0  0  0
  6  9  1  0  0  0  0
  7 14  1  0  0  0  0
  7  6  1  0  0  0  0
  7 16  1  0  0  0  0
  8 17  1  0  0  0  0
  8  6  1  0  0  0  0
  9 10  1  0  0  0  0
  9 21  1  0  0  0  0
  9 20  1  0  0  0  0
 11  3  1  0  0  0  0
 13  5  1  0  0  0  0
 15  7  1  0  0  0  0
 18  8  1  0  0  0  0
 19  8  1  0  0  0  0
 22 10  1  0  0  0  0
M  END
