astex_1meh_25.xyz
 OpenBabel11041815263D

 43 44  0  0  0  0  0  0  0  0999 V2000
   -3.8608    2.6413    0.9421 C   0  0  0  0  0  0  0  0  0  0  0  0
   -3.7852    3.4443    1.8313 O   0  0  0  0  0  0  0  0  0  0  0  0
   -2.8110    1.8832    0.2314 C   0  0  0  0  0  0  0  0  0  0  0  0
   -3.4107    1.0757   -0.7210 C   0  0  0  0  0  0  0  0  0  0  0  0
   -4.8894    1.3046   -0.6448 C   0  0  0  0  0  0  0  0  0  0  0  0
   -5.0730    2.2693    0.3943 O   0  0  0  0  0  0  0  0  0  0  0  0
   -2.6927    0.2338   -1.5602 C   0  0  0  0  0  0  0  0  0  0  0  0
   -3.3618   -0.6110   -2.6031 C   0  0  0  0  0  0  0  0  0  0  0  0
   -1.3033    0.2475   -1.3822 C   0  0  0  0  0  0  0  0  0  0  0  0
   -0.6572    1.0786   -0.4493 C   0  0  0  0  0  0  0  0  0  0  0  0
   -1.4255    1.9020    0.3859 C   0  0  0  0  0  0  0  0  0  0  0  0
   -0.8858    2.7112    1.3306 O   0  0  0  0  0  0  0  0  0  0  0  0
    0.8451    1.0690   -0.3475 C   0  0  0  0  0  0  0  0  0  0  0  0
    1.3115    0.1606    0.7529 C   0  0  0  0  0  0  0  0  0  0  0  0
    2.1690   -0.8681    0.6458 C   0  0  0  0  0  0  0  0  0  0  0  0
    2.5492   -1.6478    1.8757 C   0  0  0  0  0  0  0  0  0  0  0  0
    3.9693   -1.3262    2.3410 C   0  0  0  0  0  0  0  0  0  0  0  0
    4.0696    0.0765    2.9058 C   0  0  0  0  0  0  0  0  0  0  0  0
    3.1398    0.7049    3.3401 O   0  0  0  0  0  0  0  0  0  0  0  0
    5.3219    0.6050    2.9357 O   0  0  0  0  0  0  0  0  0  0  0  0
    2.8257   -1.2990   -0.6341 C   0  0  0  0  0  0  0  0  0  0  0  0
   -0.5126   -0.5556   -2.1791 O   0  0  0  0  0  0  0  0  0  0  0  0
   -0.4833   -1.9040   -1.7073 C   0  0  0  0  0  0  0  0  0  0  0  0
   -5.2989    1.7092   -1.5720 H   0  0  0  0  0  0  0  0  0  0  0  0
   -5.4424    0.4012   -0.3830 H   0  0  0  0  0  0  0  0  0  0  0  0
   -3.7772   -1.5248   -2.1743 H   0  0  0  0  0  0  0  0  0  0  0  0
   -4.1846   -0.0658   -3.0648 H   0  0  0  0  0  0  0  0  0  0  0  0
   -2.6554   -0.8901   -3.3810 H   0  0  0  0  0  0  0  0  0  0  0  0
    0.0708    2.5895    1.3362 H   0  0  0  0  0  0  0  0  0  0  0  0
    1.2590    0.7786   -1.3082 H   0  0  0  0  0  0  0  0  0  0  0  0
    1.2045    2.0872   -0.1582 H   0  0  0  0  0  0  0  0  0  0  0  0
    0.9115    0.3680    1.7407 H   0  0  0  0  0  0  0  0  0  0  0  0
    1.8627   -1.4201    2.6894 H   0  0  0  0  0  0  0  0  0  0  0  0
    2.4860   -2.7187    1.6689 H   0  0  0  0  0  0  0  0  0  0  0  0
    4.2729   -2.0104    3.1374 H   0  0  0  0  0  0  0  0  0  0  0  0
    4.6854   -1.4542    1.5271 H   0  0  0  0  0  0  0  0  0  0  0  0
    5.9362   -0.0274    2.5466 H   0  0  0  0  0  0  0  0  0  0  0  0
    2.3779   -0.8380   -1.5103 H   0  0  0  0  0  0  0  0  0  0  0  0
    2.7521   -2.3824   -0.7481 H   0  0  0  0  0  0  0  0  0  0  0  0
    3.8893   -1.0517   -0.6392 H   0  0  0  0  0  0  0  0  0  0  0  0
   -1.4813   -2.3445   -1.7155 H   0  0  0  0  0  0  0  0  0  0  0  0
    0.1609   -2.4565   -2.3858 H   0  0  0  0  0  0  0  0  0  0  0  0
   -0.0782   -1.9448   -0.6948 H   0  0  0  0  0  0  0  0  0  0  0  0
  1  2  2  0  0  0  0
  3 11  1  0  0  0  0
  3  1  1  0  0  0  0
  4  5  1  0  0  0  0
  4  3  2  0  0  0  0
  5 25  1  0  0  0  0
  5  6  1  0  0  0  0
  6  1  1  0  0  0  0
  7  9  2  0  0  0  0
  7  4  1  0  0  0  0
  8 26  1  0  0  0  0
  8  7  1  0  0  0  0
  9 10  1  0  0  0  0
 10 13  1  0  0  0  0
 10 11  2  0  0  0  0
 11 12  1  0  0  0  0
 12 29  1  0  0  0  0
 13 31  1  0  0  0  0
 13 14  1  0  0  0  0
 14 32  1  0  0  0  0
 15 14  2  0  0  0  0
 15 16  1  0  0  0  0
 16 17  1  0  0  0  0
 16 33  1  0  0  0  0
 17 18  1  0  0  0  0
 17 35  1  0  0  0  0
 18 20  1  0  0  0  0
 18 19  2  0  0  0  0
 21 15  1  0  0  0  0
 22 23  1  0  0  0  0
 22  9  1  0  0  0  0
 23 43  1  0  0  0  0
 24  5  1  0  0  0  0
 27  8  1  0  0  0  0
 28  8  1  0  0  0  0
 30 13  1  0  0  0  0
 34 16  1  0  0  0  0
 36 17  1  0  0  0  0
 37 20  1  0  0  0  0
 38 21  1  0  0  0  0
 39 21  1  0  0  0  0
 40 21  1  0  0  0  0
 41 23  1  0  0  0  0
 42 23  1  0  0  0  0
M  END
