omegapdb_1qxw_09.xyz
 OpenBabel11041815263D

 36 36  0  0  1  0  0  0  0  0999 V2000
    4.3260    1.4044    1.0004 C   0  0  0  0  0  0  0  0  0  0  0  0
    2.9082    1.8927    0.8389 C   0  0  0  0  0  0  0  0  0  0  0  0
    3.4164    0.7230    0.0287 C   0  0  0  0  0  0  0  0  0  0  0  0
    2.9635   -0.5976    0.3763 N   0  0  0  0  0  0  0  0  0  0  0  0
    1.8968   -1.1245   -0.4796 C   0  0  0  0  0  0  0  0  0  0  0  0
    0.5314   -0.6015   -0.0121 C   0  0  0  0  0  0  0  0  0  0  0  0
   -0.6096   -1.4987   -0.5007 C   0  0  1  0  0  0  0  0  0  0  0  0
   -0.3868   -2.8208    0.0886 N   0  0  0  0  0  0  0  0  0  0  0  0
   -1.9839   -0.8845   -0.1895 C   0  0  0  0  0  0  0  0  0  0  0  0
   -2.5532   -0.0104   -1.3024 C   0  0  0  0  0  0  0  0  0  0  0  0
   -3.9300    0.5599   -0.9712 C   0  0  0  0  0  0  0  0  0  0  0  0
   -3.9017    1.5632    0.1767 C   0  0  0  0  0  0  0  0  0  0  0  0
    0.2757    0.6906   -0.5293 O   0  0  0  0  0  0  0  0  0  0  0  0
    0.5131   -0.5926    1.3959 O   0  0  0  0  0  0  0  0  0  0  0  0
    5.1235    2.0157    0.6092 H   0  0  0  0  0  0  0  0  0  0  0  0
    4.5496    0.8620    1.9061 H   0  0  0  0  0  0  0  0  0  0  0  0
    2.7560    2.8341    0.3320 H   0  0  0  0  0  0  0  0  0  0  0  0
    2.2205    1.6709    1.6412 H   0  0  0  0  0  0  0  0  0  0  0  0
    3.5924    0.9144   -1.0265 H   0  0  0  0  0  0  0  0  0  0  0  0
    3.7496   -1.2349    0.3692 H   0  0  0  0  0  0  0  0  0  0  0  0
    2.0281   -0.8551   -1.5322 H   0  0  0  0  0  0  0  0  0  0  0  0
    1.8820   -2.2070   -0.3813 H   0  0  0  0  0  0  0  0  0  0  0  0
   -0.5029   -1.5991   -1.5850 H   0  0  0  0  0  0  0  0  0  0  0  0
   -0.4733   -2.7259    1.0950 H   0  0  0  0  0  0  0  0  0  0  0  0
   -1.1277   -3.4440   -0.2085 H   0  0  0  0  0  0  0  0  0  0  0  0
   -1.9130   -0.3294    0.7462 H   0  0  0  0  0  0  0  0  0  0  0  0
   -2.6797   -1.7107   -0.0154 H   0  0  0  0  0  0  0  0  0  0  0  0
   -1.8613    0.8038   -1.5138 H   0  0  0  0  0  0  0  0  0  0  0  0
   -2.6239   -0.6132   -2.2124 H   0  0  0  0  0  0  0  0  0  0  0  0
   -4.3357    1.0468   -1.8600 H   0  0  0  0  0  0  0  0  0  0  0  0
   -4.6135   -0.2581   -0.7283 H   0  0  0  0  0  0  0  0  0  0  0  0
   -4.8838    2.0051    0.3400 H   0  0  0  0  0  0  0  0  0  0  0  0
   -3.2005    2.3696   -0.0390 H   0  0  0  0  0  0  0  0  0  0  0  0
   -3.5903    1.0972    1.1097 H   0  0  0  0  0  0  0  0  0  0  0  0
    0.9801    1.2607   -0.1978 H   0  0  0  0  0  0  0  0  0  0  0  0
    1.4579   -0.6060    1.6383 H   0  0  0  0  0  0  0  0  0  0  0  0
  1 16  1  0  0  0  0
  2  1  1  0  0  0  0
  2 18  1  0  0  0  0
  3  4  1  0  0  0  0
  3  2  1  0  0  0  0
  3  1  1  0  0  0  0
  5 22  1  0  0  0  0
  5  6  1  0  0  0  0
  5  4  1  0  0  0  0
  6 14  1  0  0  0  0
  7 23  1  6  0  0  0
  7  9  1  0  0  0  0
  7  6  1  0  0  0  0
  7  8  1  0  0  0  0
  8 24  1  0  0  0  0
  9 27  1  0  0  0  0
  9 26  1  0  0  0  0
 10 11  1  0  0  0  0
 10  9  1  0  0  0  0
 11 31  1  0  0  0  0
 11 12  1  0  0  0  0
 12 32  1  0  0  0  0
 12 34  1  0  0  0  0
 13 35  1  0  0  0  0
 13  6  1  0  0  0  0
 14 36  1  0  0  0  0
 15  1  1  0  0  0  0
 17  2  1  0  0  0  0
 19  3  1  0  0  0  0
 20  4  1  0  0  0  0
 21  5  1  0  0  0  0
 25  8  1  0  0  0  0
 28 10  1  0  0  0  0
 29 10  1  0  0  0  0
 30 11  1  0  0  0  0
 33 12  1  0  0  0  0
M  END
