omegacsd_SEYMIS_00.xyz
 OpenBabel11041815263D

 45 47  0  0  0  0  0  0  0  0999 V2000
   -5.4647   -1.5456    0.6841 O   0  0  0  0  0  0  0  0  0  0  0  0
   -5.1983   -0.4121   -0.0564 N   0  0  0  0  0  0  0  0  0  0  0  0
   -3.8776   -0.3530   -0.1652 C   0  0  0  0  0  0  0  0  0  0  0  0
   -3.2592   -1.4519    0.4998 C   0  0  0  0  0  0  0  0  0  0  0  0
   -1.8332   -1.7892    0.7150 C   0  0  0  0  0  0  0  0  0  0  0  0
   -1.4576   -2.9270    0.9854 O   0  0  0  0  0  0  0  0  0  0  0  0
   -0.9884   -0.7268    0.6151 N   0  0  0  0  0  0  0  0  0  0  0  0
    0.4022   -0.7985    0.6707 C   0  0  0  0  0  0  0  0  0  0  0  0
    1.1895   -1.9090    0.9804 C   0  0  0  0  0  0  0  0  0  0  0  0
    2.4964   -1.5235    0.9050 N   0  0  0  0  0  0  0  0  0  0  0  0
    3.6107   -2.4214    1.1646 C   0  0  0  0  0  0  0  0  0  0  0  0
    2.5652   -0.1983    0.5572 C   0  0  0  0  0  0  0  0  0  0  0  0
    1.2614    0.2779    0.4034 C   0  0  0  0  0  0  0  0  0  0  0  0
    3.8294    0.5004    0.3966 C   0  0  0  0  0  0  0  0  0  0  0  0
    4.9360    0.0100    0.5453 O   0  0  0  0  0  0  0  0  0  0  0  0
    3.6182    1.7918    0.0578 O   0  0  0  0  0  0  0  0  0  0  0  0
    4.8162    2.5654   -0.1495 C   0  0  0  0  0  0  0  0  0  0  0  0
    5.3657    2.3522   -1.5423 C   0  0  0  0  0  0  0  0  0  0  0  0
   -4.3124   -2.1656    1.0085 C   0  0  0  0  0  0  0  0  0  0  0  0
   -4.4178   -3.4065    1.8078 C   0  0  0  0  0  0  0  0  0  0  0  0
   -3.2741    0.7571   -0.9126 C   0  0  0  0  0  0  0  0  0  0  0  0
   -2.2945    0.5135   -1.8847 C   0  0  0  0  0  0  0  0  0  0  0  0
   -1.7194    1.5742   -2.5789 C   0  0  0  0  0  0  0  0  0  0  0  0
   -2.1213    2.8833   -2.3159 C   0  0  0  0  0  0  0  0  0  0  0  0
   -3.1058    3.1284   -1.3598 C   0  0  0  0  0  0  0  0  0  0  0  0
   -3.6798    2.0719   -0.6581 C   0  0  0  0  0  0  0  0  0  0  0  0
   -1.3834    0.1665    0.3649 H   0  0  0  0  0  0  0  0  0  0  0  0
    0.9065   -2.9113    1.2386 H   0  0  0  0  0  0  0  0  0  0  0  0
    4.2458   -2.5005    0.2879 H   0  0  0  0  0  0  0  0  0  0  0  0
    4.2102   -2.0526    1.9909 H   0  0  0  0  0  0  0  0  0  0  0  0
    3.1936   -3.3931    1.4112 H   0  0  0  0  0  0  0  0  0  0  0  0
    0.9945    1.2845    0.1299 H   0  0  0  0  0  0  0  0  0  0  0  0
    5.5476    2.2953    0.6085 H   0  0  0  0  0  0  0  0  0  0  0  0
    4.5002    3.5939    0.0003 H   0  0  0  0  0  0  0  0  0  0  0  0
    4.6107    2.5893   -2.2888 H   0  0  0  0  0  0  0  0  0  0  0  0
    6.2260    3.0006   -1.7035 H   0  0  0  0  0  0  0  0  0  0  0  0
    5.6828    1.3209   -1.6712 H   0  0  0  0  0  0  0  0  0  0  0  0
   -4.8247   -4.2150    1.2014 H   0  0  0  0  0  0  0  0  0  0  0  0
   -5.0775   -3.2542    2.6598 H   0  0  0  0  0  0  0  0  0  0  0  0
   -3.4264   -3.6938    2.1427 H   0  0  0  0  0  0  0  0  0  0  0  0
   -1.9936   -0.5040   -2.0975 H   0  0  0  0  0  0  0  0  0  0  0  0
   -0.9641    1.3774   -3.3271 H   0  0  0  0  0  0  0  0  0  0  0  0
   -1.6723    3.7060   -2.8549 H   0  0  0  0  0  0  0  0  0  0  0  0
   -3.4226    4.1420   -1.1564 H   0  0  0  0  0  0  0  0  0  0  0  0
   -4.4404    2.2504    0.0896 H   0  0  0  0  0  0  0  0  0  0  0  0
  1 19  1  0  0  0  0
  2  1  1  0  0  0  0
  3  2  2  0  0  0  0
  3  4  1  0  0  0  0
  4  5  1  0  0  0  0
  4 19  2  0  0  0  0
  5  6  2  0  0  0  0
  7  8  1  0  0  0  0
  7  5  1  0  0  0  0
  8  9  2  0  0  0  0
  9 28  1  0  0  0  0
 10  9  1  0  0  0  0
 10 11  1  0  0  0  0
 11 31  1  0  0  0  0
 11 30  1  0  0  0  0
 12 10  1  0  0  0  0
 13 12  2  0  0  0  0
 13  8  1  0  0  0  0
 14 15  2  0  0  0  0
 14 12  1  0  0  0  0
 16 14  1  0  0  0  0
 17 34  1  0  0  0  0
 17 16  1  0  0  0  0
 17 33  1  0  0  0  0
 18 17  1  0  0  0  0
 19 20  1  0  0  0  0
 20 40  1  0  0  0  0
 20 39  1  0  0  0  0
 21 26  1  0  0  0  0
 21  3  1  0  0  0  0
 22 21  2  0  0  0  0
 23 24  2  0  0  0  0
 23 22  1  0  0  0  0
 24 25  1  0  0  0  0
 25 44  1  0  0  0  0
 25 26  2  0  0  0  0
 26 45  1  0  0  0  0
 27  7  1  0  0  0  0
 29 11  1  0  0  0  0
 32 13  1  0  0  0  0
 35 18  1  0  0  0  0
 36 18  1  0  0  0  0
 37 18  1  0  0  0  0
 38 20  1  0  0  0  0
 41 22  1  0  0  0  0
 42 23  1  0  0  0  0
 43 24  1  0  0  0  0
M  END
