omegacsd_GALSEM_05.xyz
 OpenBabel11041815263D

 39 40  0  0  0  0  0  0  0  0999 V2000
    0.6704   -0.8265    2.8558 S   0  0  0  0  0  0  0  0  0  0  0  0
   -0.6644   -0.2950    3.0969 O   0  0  0  0  0  0  0  0  0  0  0  0
    1.4176   -1.4643    3.9041 O   0  0  0  0  0  0  0  0  0  0  0  0
    1.5061    0.5154    2.2984 N   0  0  0  0  0  0  0  0  0  0  0  0
    2.7887    0.4598    1.7516 C   0  0  0  0  0  0  0  0  0  0  0  0
    3.4203   -0.5749    1.7106 O   0  0  0  0  0  0  0  0  0  0  0  0
    3.2787    1.7921    1.2332 C   0  0  0  0  0  0  0  0  0  0  0  0
    4.6715    1.6872    0.6381 C   0  0  0  0  0  0  0  0  0  0  0  0
    0.6276   -1.8735    1.4457 C   0  0  0  0  0  0  0  0  0  0  0  0
   -0.1497   -1.5388    0.3214 C   0  0  0  0  0  0  0  0  0  0  0  0
   -0.9301   -0.4017    0.3130 N   0  0  0  0  0  0  0  0  0  0  0  0
   -1.6000    0.1145   -0.7992 C   0  0  0  0  0  0  0  0  0  0  0  0
   -2.8980    0.6074   -0.6410 C   0  0  0  0  0  0  0  0  0  0  0  0
   -3.5522    1.1956   -1.7182 C   0  0  0  0  0  0  0  0  0  0  0  0
   -2.9449    1.2761   -2.9693 C   0  0  0  0  0  0  0  0  0  0  0  0
   -1.6516    0.7843   -3.1226 C   0  0  0  0  0  0  0  0  0  0  0  0
   -0.9742    0.2178   -2.0480 C   0  0  0  0  0  0  0  0  0  0  0  0
   -4.9621    1.6770   -1.5455 C   0  0  0  0  0  0  0  0  0  0  0  0
   -5.2055    2.0721   -0.2879 F   0  0  0  0  0  0  0  0  0  0  0  0
   -5.8468    0.7071   -1.8317 F   0  0  0  0  0  0  0  0  0  0  0  0
   -5.2374    2.7101   -2.3536 F   0  0  0  0  0  0  0  0  0  0  0  0
   -0.0768   -2.4408   -0.7472 C   0  0  0  0  0  0  0  0  0  0  0  0
    0.7274   -3.5658   -0.6408 C   0  0  0  0  0  0  0  0  0  0  0  0
    1.4711   -3.8796    0.4308 N   0  0  0  0  0  0  0  0  0  0  0  0
    1.4077   -3.0272    1.4550 C   0  0  0  0  0  0  0  0  0  0  0  0
    0.9416    1.3475    2.2081 H   0  0  0  0  0  0  0  0  0  0  0  0
    3.2538    2.5040    2.0607 H   0  0  0  0  0  0  0  0  0  0  0  0
    2.5588    2.1522    0.4945 H   0  0  0  0  0  0  0  0  0  0  0  0
    4.6844    0.9803   -0.1873 H   0  0  0  0  0  0  0  0  0  0  0  0
    5.0020    2.6569    0.2733 H   0  0  0  0  0  0  0  0  0  0  0  0
    5.3799    1.3343    1.3828 H   0  0  0  0  0  0  0  0  0  0  0  0
   -1.2584   -0.1145    1.2283 H   0  0  0  0  0  0  0  0  0  0  0  0
   -3.3871    0.5368    0.3211 H   0  0  0  0  0  0  0  0  0  0  0  0
   -3.4668    1.7292   -3.7987 H   0  0  0  0  0  0  0  0  0  0  0  0
   -1.1576    0.8599   -4.0811 H   0  0  0  0  0  0  0  0  0  0  0  0
    0.0460   -0.1202   -2.1648 H   0  0  0  0  0  0  0  0  0  0  0  0
   -0.6643   -2.2842   -1.6391 H   0  0  0  0  0  0  0  0  0  0  0  0
    0.7687   -4.2653   -1.4666 H   0  0  0  0  0  0  0  0  0  0  0  0
    2.0057   -3.2452    2.3287 H   0  0  0  0  0  0  0  0  0  0  0  0
  1  2  2  0  0  0  0
  1  3  2  0  0  0  0
  4  1  1  0  0  0  0
  5  4  1  0  0  0  0
  6  5  2  0  0  0  0
  7  5  1  0  0  0  0
  7 27  1  0  0  0  0
  8  7  1  0  0  0  0
  8 31  1  0  0  0  0
  9 25  1  0  0  0  0
  9  1  1  0  0  0  0
 10  9  2  0  0  0  0
 11 10  1  0  0  0  0
 11 32  1  0  0  0  0
 12 13  1  0  0  0  0
 12 11  1  0  0  0  0
 13 33  1  0  0  0  0
 14 18  1  0  0  0  0
 14 13  2  0  0  0  0
 15 14  1  0  0  0  0
 16 15  2  0  0  0  0
 16 17  1  0  0  0  0
 17 12  2  0  0  0  0
 18 19  1  0  0  0  0
 20 18  1  0  0  0  0
 21 18  1  0  0  0  0
 22 23  2  0  0  0  0
 22 10  1  0  0  0  0
 23 24  1  0  0  0  0
 24 25  2  0  0  0  0
 25 39  1  0  0  0  0
 26  4  1  0  0  0  0
 28  7  1  0  0  0  0
 29  8  1  0  0  0  0
 30  8  1  0  0  0  0
 34 15  1  0  0  0  0
 35 16  1  0  0  0  0
 36 17  1  0  0  0  0
 37 22  1  0  0  0  0
 38 23  1  0  0  0  0
M  END
