omegapdb_1v2k_18.xyz
 OpenBabel11041815263D

 61 65  0  0  0  0  0  0  0  0999 V2000
    8.6534    1.7370   -1.1329 N   0  0  0  0  0  0  0  0  0  0  0  0
    7.6849    1.6399   -2.0532 C   0  0  0  0  0  0  0  0  0  0  0  0
    6.4514    1.0350   -1.8509 C   0  0  0  0  0  0  0  0  0  0  0  0
    6.1559    0.4584   -0.6030 C   0  0  0  0  0  0  0  0  0  0  0  0
    7.1653    0.5663    0.3711 C   0  0  0  0  0  0  0  0  0  0  0  0
    8.3617    1.1961    0.0578 C   0  0  0  0  0  0  0  0  0  0  0  0
    4.9697   -0.1806   -0.3248 N   0  0  0  0  0  0  0  0  0  0  0  0
    4.5742   -0.3238    1.0741 C   0  0  0  0  0  0  0  0  0  0  0  0
    3.0737   -0.5377    1.1944 C   0  0  0  0  0  0  0  0  0  0  0  0
    2.6710   -1.7502    0.3531 C   0  0  0  0  0  0  0  0  0  0  0  0
    3.1216   -1.5816   -1.1156 C   0  0  0  0  0  0  0  0  0  0  0  0
    3.9426   -0.3137   -1.3389 C   0  0  0  0  0  0  0  0  0  0  0  0
    1.2231   -2.1668    0.5690 C   0  0  0  0  0  0  0  0  0  0  0  0
    0.9742   -3.1389    1.2774 O   0  0  0  0  0  0  0  0  0  0  0  0
    0.2214   -1.4601   -0.0494 N   0  0  0  0  0  0  0  0  0  0  0  0
   -1.1571   -1.8436    0.2078 C   0  0  0  0  0  0  0  0  0  0  0  0
   -1.8256   -0.8147    1.1030 C   0  0  0  0  0  0  0  0  0  0  0  0
   -1.7340    0.4940    0.4403 N   0  0  0  0  0  0  0  0  0  0  0  0
   -0.3344    0.8990    0.2404 C   0  0  0  0  0  0  0  0  0  0  0  0
    0.3362   -0.1434   -0.6423 C   0  0  0  0  0  0  0  0  0  0  0  0
   -2.6350    1.6878    1.2083 S   0  0  0  0  0  0  0  0  0  0  0  0
   -2.4436    1.6415    2.6482 O   0  0  0  0  0  0  0  0  0  0  0  0
   -2.3792    2.9122    0.4762 O   0  0  0  0  0  0  0  0  0  0  0  0
   -4.2694    1.1064    0.8566 C   0  0  0  0  0  0  0  0  0  0  0  0
   -4.7180    1.1540   -0.4459 C   0  0  0  0  0  0  0  0  0  0  0  0
   -6.0201    0.7055   -0.7464 C   0  0  0  0  0  0  0  0  0  0  0  0
   -6.8497    0.2094    0.3103 C   0  0  0  0  0  0  0  0  0  0  0  0
   -6.3462    0.1872    1.6322 C   0  0  0  0  0  0  0  0  0  0  0  0
   -5.0713    0.6279    1.9110 C   0  0  0  0  0  0  0  0  0  0  0  0
   -8.1539   -0.2424    0.0104 C   0  0  0  0  0  0  0  0  0  0  0  0
   -8.6093   -0.2004   -1.2873 C   0  0  0  0  0  0  0  0  0  0  0  0
   -7.8035    0.2875   -2.3372 C   0  0  0  0  0  0  0  0  0  0  0  0
   -6.5310    0.7321   -2.0660 C   0  0  0  0  0  0  0  0  0  0  0  0
  -10.2074   -0.7541   -1.6589 Cl  0  0  0  0  0  0  0  0  0  0  0  0
    7.8999    2.0833   -3.0183 H   0  0  0  0  0  0  0  0  0  0  0  0
    5.7373    1.0445   -2.6595 H   0  0  0  0  0  0  0  0  0  0  0  0
    7.0409    0.1456    1.3571 H   0  0  0  0  0  0  0  0  0  0  0  0
    9.1345    1.2655    0.8141 H   0  0  0  0  0  0  0  0  0  0  0  0
    4.8686    0.5733    1.6261 H   0  0  0  0  0  0  0  0  0  0  0  0
    5.0910   -1.1744    1.5317 H   0  0  0  0  0  0  0  0  0  0  0  0
    2.5487    0.3676    0.8891 H   0  0  0  0  0  0  0  0  0  0  0  0
    2.8257   -0.7155    2.2413 H   0  0  0  0  0  0  0  0  0  0  0  0
    3.2123   -2.5951    0.7780 H   0  0  0  0  0  0  0  0  0  0  0  0
    2.2713   -1.5811   -1.7981 H   0  0  0  0  0  0  0  0  0  0  0  0
    3.7394   -2.4354   -1.3903 H   0  0  0  0  0  0  0  0  0  0  0  0
    3.3013    0.5777   -1.3823 H   0  0  0  0  0  0  0  0  0  0  0  0
    4.4289   -0.3935   -2.3078 H   0  0  0  0  0  0  0  0  0  0  0  0
   -1.1480   -2.8194    0.6839 H   0  0  0  0  0  0  0  0  0  0  0  0
   -1.6899   -1.8976   -0.7441 H   0  0  0  0  0  0  0  0  0  0  0  0
   -2.8781   -1.0652    1.2378 H   0  0  0  0  0  0  0  0  0  0  0  0
   -1.3389   -0.7957    2.0839 H   0  0  0  0  0  0  0  0  0  0  0  0
    0.1963    0.9667    1.1982 H   0  0  0  0  0  0  0  0  0  0  0  0
   -0.3261    1.8731   -0.2436 H   0  0  0  0  0  0  0  0  0  0  0  0
   -0.1562   -0.1504   -1.6188 H   0  0  0  0  0  0  0  0  0  0  0  0
    1.3761    0.1202   -0.7905 H   0  0  0  0  0  0  0  0  0  0  0  0
   -4.0776    1.5393   -1.2291 H   0  0  0  0  0  0  0  0  0  0  0  0
   -6.9793   -0.1828    2.4288 H   0  0  0  0  0  0  0  0  0  0  0  0
   -4.6743    0.6259    2.9162 H   0  0  0  0  0  0  0  0  0  0  0  0
   -8.7912   -0.6189    0.7992 H   0  0  0  0  0  0  0  0  0  0  0  0
   -8.1979    0.3065   -3.3429 H   0  0  0  0  0  0  0  0  0  0  0  0
   -5.9064    1.1102   -2.8652 H   0  0  0  0  0  0  0  0  0  0  0  0
  1  6  2  0  0  0  0
  2  3  2  0  0  0  0
  2  1  1  0  0  0  0
  3  4  1  0  0  0  0
  4  7  1  0  0  0  0
  4  5  2  0  0  0  0
  5 37  1  0  0  0  0
  6  5  1  0  0  0  0
  6 38  1  0  0  0  0
  7  8  1  0  0  0  0
  8  9  1  0  0  0  0
  8 40  1  0  0  0  0
  8 39  1  0  0  0  0
  9 42  1  0  0  0  0
 10 13  1  0  0  0  0
 10 43  1  0  0  0  0
 10  9  1  0  0  0  0
 11 10  1  0  0  0  0
 12 11  1  0  0  0  0
 12  7  1  0  0  0  0
 13 14  2  0  0  0  0
 15 16  1  0  0  0  0
 15 13  1  0  0  0  0
 16 48  1  0  0  0  0
 16 17  1  0  0  0  0
 17 50  1  0  0  0  0
 17 51  1  0  0  0  0
 18 17  1  0  0  0  0
 18 21  1  0  0  0  0
 19 18  1  0  0  0  0
 19 52  1  0  0  0  0
 20 15  1  0  0  0  0
 20 19  1  0  0  0  0
 21 22  2  0  0  0  0
 23 21  2  0  0  0  0
 24 21  1  0  0  0  0
 24 29  2  0  0  0  0
 25 24  1  0  0  0  0
 26 25  2  0  0  0  0
 26 27  1  0  0  0  0
 27 28  2  0  0  0  0
 28 29  1  0  0  0  0
 28 57  1  0  0  0  0
 29 58  1  0  0  0  0
 30 27  1  0  0  0  0
 30 59  1  0  0  0  0
 31 30  2  0  0  0  0
 32 33  2  0  0  0  0
 32 31  1  0  0  0  0
 33 26  1  0  0  0  0
 34 31  1  0  0  0  0
 35  2  1  0  0  0  0
 36  3  1  0  0  0  0
 41  9  1  0  0  0  0
 44 11  1  0  0  0  0
 45 11  1  0  0  0  0
 46 12  1  0  0  0  0
 47 12  1  0  0  0  0
 49 16  1  0  0  0  0
 53 19  1  0  0  0  0
 54 20  1  0  0  0  0
 55 20  1  0  0  0  0
 56 25  1  0  0  0  0
 60 32  1  0  0  0  0
 61 33  1  0  0  0  0
M  END
