omegapdb_2byh_07.xyz
 OpenBabel11041815263D

 40 42  0  0  0  0  0  0  0  0999 V2000
    5.7893    1.6554    0.9997 O   0  0  0  0  0  0  0  0  0  0  0  0
    4.6527    2.0490    1.2162 C   0  0  0  0  0  0  0  0  0  0  0  0
    4.3996    3.4450    1.7338 C   0  0  0  0  0  0  0  0  0  0  0  0
    3.4775    1.1644    0.9763 C   0  0  0  0  0  0  0  0  0  0  0  0
    2.1625    1.5846    1.2058 C   0  0  0  0  0  0  0  0  0  0  0  0
    1.1019    0.7239    0.9657 C   0  0  0  0  0  0  0  0  0  0  0  0
    1.3334   -0.5764    0.4989 C   0  0  0  0  0  0  0  0  0  0  0  0
    2.6466   -1.0082    0.2703 C   0  0  0  0  0  0  0  0  0  0  0  0
    3.6981   -0.1340    0.5082 C   0  0  0  0  0  0  0  0  0  0  0  0
    0.2086   -1.3765    0.2820 N   0  0  0  0  0  0  0  0  0  0  0  0
    0.1262   -2.5920   -0.3504 C   0  0  0  0  0  0  0  0  0  0  0  0
    1.0836   -3.2816   -0.6729 O   0  0  0  0  0  0  0  0  0  0  0  0
   -1.2679   -3.0121   -0.6189 C   0  0  0  0  0  0  0  0  0  0  0  0
   -1.7021   -4.3330   -0.8325 C   0  0  0  0  0  0  0  0  0  0  0  0
   -3.0298   -4.3974   -1.0080 N   0  0  0  0  0  0  0  0  0  0  0  0
   -3.4325   -3.1241   -0.9153 N   0  0  0  0  0  0  0  0  0  0  0  0
   -2.4305   -2.2353   -0.6812 C   0  0  0  0  0  0  0  0  0  0  0  0
   -2.6431   -0.7926   -0.5787 C   0  0  0  0  0  0  0  0  0  0  0  0
   -3.4408   -0.2391    0.4304 C   0  0  0  0  0  0  0  0  0  0  0  0
   -3.6076    1.1342    0.5385 C   0  0  0  0  0  0  0  0  0  0  0  0
   -4.5902    1.7959    1.7909 Cl  0  0  0  0  0  0  0  0  0  0  0  0
   -2.9644    1.9896   -0.3666 C   0  0  0  0  0  0  0  0  0  0  0  0
   -3.1446    3.3248   -0.2159 O   0  0  0  0  0  0  0  0  0  0  0  0
   -2.1689    1.4455   -1.3709 C   0  0  0  0  0  0  0  0  0  0  0  0
   -2.0081    0.0686   -1.4896 C   0  0  0  0  0  0  0  0  0  0  0  0
   -1.2191   -0.3793   -2.4969 O   0  0  0  0  0  0  0  0  0  0  0  0
    3.8796    3.4107    2.6906 H   0  0  0  0  0  0  0  0  0  0  0  0
    5.3528    3.9492    1.8540 H   0  0  0  0  0  0  0  0  0  0  0  0
    3.7747    4.0041    1.0381 H   0  0  0  0  0  0  0  0  0  0  0  0
    1.9574    2.5816    1.5691 H   0  0  0  0  0  0  0  0  0  0  0  0
    0.0835    1.0539    1.1382 H   0  0  0  0  0  0  0  0  0  0  0  0
    2.8211   -2.0102   -0.0842 H   0  0  0  0  0  0  0  0  0  0  0  0
    4.7182   -0.4486    0.3376 H   0  0  0  0  0  0  0  0  0  0  0  0
   -0.6744   -0.9410    0.5073 H   0  0  0  0  0  0  0  0  0  0  0  0
   -1.1051   -5.2279   -0.8513 H   0  0  0  0  0  0  0  0  0  0  0  0
   -4.4057   -2.9019   -1.0581 H   0  0  0  0  0  0  0  0  0  0  0  0
   -3.9193   -0.8871    1.1526 H   0  0  0  0  0  0  0  0  0  0  0  0
   -2.6529    3.7776   -0.9106 H   0  0  0  0  0  0  0  0  0  0  0  0
   -1.6648    2.0880   -2.0819 H   0  0  0  0  0  0  0  0  0  0  0  0
   -1.1957   -1.3474   -2.4548 H   0  0  0  0  0  0  0  0  0  0  0  0
  1  2  2  0  0  0  0
  2  3  1  0  0  0  0
  3 28  1  0  0  0  0
  3 27  1  0  0  0  0
  4  5  1  0  0  0  0
  4  2  1  0  0  0  0
  5 30  1  0  0  0  0
  6 31  1  0  0  0  0
  6  5  2  0  0  0  0
  7  6  1  0  0  0  0
  8  7  2  0  0  0  0
  8  9  1  0  0  0  0
  9  4  2  0  0  0  0
 10  7  1  0  0  0  0
 10 34  1  0  0  0  0
 11 10  1  0  0  0  0
 12 11  2  0  0  0  0
 13 11  1  0  0  0  0
 14 13  1  0  0  0  0
 15 16  1  0  0  0  0
 15 14  2  0  0  0  0
 16 17  1  0  0  0  0
 17 13  2  0  0  0  0
 17 18  1  0  0  0  0
 18 19  2  0  0  0  0
 19 20  1  0  0  0  0
 19 37  1  0  0  0  0
 20 21  1  0  0  0  0
 22 23  1  0  0  0  0
 22 20  2  0  0  0  0
 24 22  1  0  0  0  0
 25 24  2  0  0  0  0
 25 18  1  0  0  0  0
 26 40  1  0  0  0  0
 26 25  1  0  0  0  0
 29  3  1  0  0  0  0
 32  8  1  0  0  0  0
 33  9  1  0  0  0  0
 35 14  1  0  0  0  0
 36 16  1  0  0  0  0
 38 23  1  0  0  0  0
 39 24  1  0  0  0  0
M  END
