omegapdb_2byh_17.xyz
 OpenBabel11041815263D

 40 42  0  0  0  0  0  0  0  0999 V2000
    5.8808    0.4812    2.7128 O   0  0  0  0  0  0  0  0  0  0  0  0
    4.7176    0.8467    2.6316 C   0  0  0  0  0  0  0  0  0  0  0  0
    4.1083    1.7482    3.6770 C   0  0  0  0  0  0  0  0  0  0  0  0
    3.8581    0.4057    1.4946 C   0  0  0  0  0  0  0  0  0  0  0  0
    2.5296    0.8203    1.3515 C   0  0  0  0  0  0  0  0  0  0  0  0
    1.7640    0.3921    0.2742 C   0  0  0  0  0  0  0  0  0  0  0  0
    2.3092   -0.4897   -0.6640 C   0  0  0  0  0  0  0  0  0  0  0  0
    3.6406   -0.8987   -0.5286 C   0  0  0  0  0  0  0  0  0  0  0  0
    4.4086   -0.4488    0.5344 C   0  0  0  0  0  0  0  0  0  0  0  0
    1.5663   -0.9486   -1.7648 N   0  0  0  0  0  0  0  0  0  0  0  0
    0.2203   -1.2448   -1.8326 C   0  0  0  0  0  0  0  0  0  0  0  0
   -0.3409   -1.3587   -2.9136 O   0  0  0  0  0  0  0  0  0  0  0  0
   -0.4461   -1.4968   -0.5407 C   0  0  0  0  0  0  0  0  0  0  0  0
    0.0531   -2.2905    0.5067 C   0  0  0  0  0  0  0  0  0  0  0  0
   -0.8457   -2.4361    1.4928 N   0  0  0  0  0  0  0  0  0  0  0  0
   -1.8947   -1.7244    1.0781 N   0  0  0  0  0  0  0  0  0  0  0  0
   -1.7377   -1.1358   -0.1407 C   0  0  0  0  0  0  0  0  0  0  0  0
   -2.7451   -0.2685   -0.7396 C   0  0  0  0  0  0  0  0  0  0  0  0
   -2.3800    0.6683   -1.7137 C   0  0  0  0  0  0  0  0  0  0  0  0
   -3.3085    1.5063   -2.3092 C   0  0  0  0  0  0  0  0  0  0  0  0
   -2.8067    2.6428   -3.5053 Cl  0  0  0  0  0  0  0  0  0  0  0  0
   -4.6556    1.4412   -1.9422 C   0  0  0  0  0  0  0  0  0  0  0  0
   -5.5346    2.2800   -2.5503 O   0  0  0  0  0  0  0  0  0  0  0  0
   -5.0303    0.5255   -0.9636 C   0  0  0  0  0  0  0  0  0  0  0  0
   -4.0958   -0.3137   -0.3667 C   0  0  0  0  0  0  0  0  0  0  0  0
   -4.4722   -1.2091    0.6077 O   0  0  0  0  0  0  0  0  0  0  0  0
    4.8584    1.9637    4.4308 H   0  0  0  0  0  0  0  0  0  0  0  0
    3.2472    1.2687    4.1414 H   0  0  0  0  0  0  0  0  0  0  0  0
    3.7644    2.6787    3.2264 H   0  0  0  0  0  0  0  0  0  0  0  0
    2.0873    1.4964    2.0692 H   0  0  0  0  0  0  0  0  0  0  0  0
    0.7487    0.7432    0.1554 H   0  0  0  0  0  0  0  0  0  0  0  0
    4.0590   -1.5821   -1.2564 H   0  0  0  0  0  0  0  0  0  0  0  0
    5.4369   -0.7607    0.6508 H   0  0  0  0  0  0  0  0  0  0  0  0
    2.0274   -0.9784   -2.6636 H   0  0  0  0  0  0  0  0  0  0  0  0
    1.0110   -2.7776    0.5774 H   0  0  0  0  0  0  0  0  0  0  0  0
   -2.7368   -1.6941    1.6303 H   0  0  0  0  0  0  0  0  0  0  0  0
   -1.3522    0.7397   -2.0328 H   0  0  0  0  0  0  0  0  0  0  0  0
   -6.4155    2.1020   -2.2034 H   0  0  0  0  0  0  0  0  0  0  0  0
   -6.0697    0.4693   -0.6577 H   0  0  0  0  0  0  0  0  0  0  0  0
   -5.4285   -1.1631    0.7124 H   0  0  0  0  0  0  0  0  0  0  0  0
  2  1  2  0  0  0  0
  2  3  1  0  0  0  0
  3 28  1  0  0  0  0
  3 27  1  0  0  0  0
  4  2  1  0  0  0  0
  5  4  1  0  0  0  0
  5 30  1  0  0  0  0
  6  5  2  0  0  0  0
  7  8  2  0  0  0  0
  7  6  1  0  0  0  0
  8  9  1  0  0  0  0
  9 33  1  0  0  0  0
  9  4  2  0  0  0  0
 10  7  1  0  0  0  0
 11 10  1  0  0  0  0
 11 13  1  0  0  0  0
 12 11  2  0  0  0  0
 13 17  2  0  0  0  0
 13 14  1  0  0  0  0
 14 35  1  0  0  0  0
 14 15  2  0  0  0  0
 16 15  1  0  0  0  0
 16 36  1  0  0  0  0
 17 16  1  0  0  0  0
 18 25  1  0  0  0  0
 18 17  1  0  0  0  0
 19 18  2  0  0  0  0
 20 22  2  0  0  0  0
 20 19  1  0  0  0  0
 21 20  1  0  0  0  0
 22 24  1  0  0  0  0
 23 38  1  0  0  0  0
 23 22  1  0  0  0  0
 24 39  1  0  0  0  0
 24 25  2  0  0  0  0
 25 26  1  0  0  0  0
 26 40  1  0  0  0  0
 29  3  1  0  0  0  0
 31  6  1  0  0  0  0
 32  8  1  0  0  0  0
 34 10  1  0  0  0  0
 37 19  1  0  0  0  0
M  END
