omegacsd_CUHNEY10_12.xyz
 OpenBabel11041815263D

 44 47  0  0  1  0  0  0  0  0999 V2000
   -0.5836   -5.2116   -0.4997 Cl  0  0  0  0  0  0  0  0  0  0  0  0
   -1.2044   -3.6014   -0.5479 C   0  0  0  0  0  0  0  0  0  0  0  0
   -0.9133   -2.7148    0.4842 C   0  0  0  0  0  0  0  0  0  0  0  0
   -1.3553   -1.4554    0.4885 N   0  0  0  0  0  0  0  0  0  0  0  0
   -2.1056   -1.0383   -0.5367 C   0  0  0  0  0  0  0  0  0  0  0  0
   -2.4895    0.3054   -0.4543 N   0  0  0  0  0  0  0  0  0  0  0  0
   -3.3628    0.9725   -1.3118 C   0  0  0  0  0  0  0  0  0  0  0  0
   -3.9769    0.5024   -2.2481 O   0  0  0  0  0  0  0  0  0  0  0  0
   -3.3782    2.3765   -0.8086 C   0  0  0  0  0  0  0  0  0  0  0  0
   -4.0869    3.3895   -1.3039 N   0  0  0  0  0  0  0  0  0  0  0  0
   -3.8786    4.5370   -0.6387 C   0  0  0  0  0  0  0  0  0  0  0  0
   -3.0089    4.6482    0.4537 C   0  0  0  0  0  0  0  0  0  0  0  0
   -2.3031    3.6133    0.9404 N   0  0  0  0  0  0  0  0  0  0  0  0
   -2.5202    2.4821    0.2750 C   0  0  0  0  0  0  0  0  0  0  0  0
   -1.8788    1.1606    0.5640 C   0  0  2  0  0  0  0  0  0  0  0  0
   -0.4851    1.2195    0.3458 O   0  0  0  0  0  0  0  0  0  0  0  0
    0.2685    0.6966    1.3840 C   0  0  0  0  0  0  0  0  0  0  0  0
   -0.0854    0.7097    2.5439 O   0  0  0  0  0  0  0  0  0  0  0  0
    1.4494    0.2352    0.9218 N   0  0  0  0  0  0  0  0  0  0  0  0
    1.7342   -0.0325   -0.4839 C   0  0  0  0  0  0  0  0  0  0  0  0
    2.5005   -1.3460   -0.5596 C   0  0  0  0  0  0  0  0  0  0  0  0
    3.7800   -1.3155    0.1591 N   0  0  0  0  0  0  0  0  0  0  0  0
    3.7604   -0.3533    1.2597 C   0  0  0  0  0  0  0  0  0  0  0  0
    2.3914   -0.2942    1.9022 C   0  0  0  0  0  0  0  0  0  0  0  0
    4.8990   -1.0325   -0.7213 C   0  0  0  0  0  0  0  0  0  0  0  0
   -2.4611   -1.8634   -1.6114 C   0  0  0  0  0  0  0  0  0  0  0  0
   -1.9945   -3.1706   -1.6089 C   0  0  0  0  0  0  0  0  0  0  0  0
   -0.3139   -3.0272    1.3300 H   0  0  0  0  0  0  0  0  0  0  0  0
   -4.4229    5.4052   -0.9868 H   0  0  0  0  0  0  0  0  0  0  0  0
   -2.8791    5.6008    0.9502 H   0  0  0  0  0  0  0  0  0  0  0  0
   -2.0680    0.7942    1.5721 H   0  0  0  0  0  0  0  0  0  0  0  0
    2.3135    0.7828   -0.9255 H   0  0  0  0  0  0  0  0  0  0  0  0
    0.7959   -0.1082   -1.0265 H   0  0  0  0  0  0  0  0  0  0  0  0
    1.8671   -2.1334   -0.1447 H   0  0  0  0  0  0  0  0  0  0  0  0
    2.6895   -1.6031   -1.6018 H   0  0  0  0  0  0  0  0  0  0  0  0
    4.0201    0.6602    0.9140 H   0  0  0  0  0  0  0  0  0  0  0  0
    4.5067   -0.6439    1.9998 H   0  0  0  0  0  0  0  0  0  0  0  0
    2.3939    0.3637    2.7678 H   0  0  0  0  0  0  0  0  0  0  0  0
    2.0856   -1.2883    2.2405 H   0  0  0  0  0  0  0  0  0  0  0  0
    5.8226   -1.0493   -0.1437 H   0  0  0  0  0  0  0  0  0  0  0  0
    4.8255   -0.0474   -1.2081 H   0  0  0  0  0  0  0  0  0  0  0  0
    4.9681   -1.7977   -1.4921 H   0  0  0  0  0  0  0  0  0  0  0  0
   -3.0786   -1.4829   -2.4080 H   0  0  0  0  0  0  0  0  0  0  0  0
   -2.2378   -3.8445   -2.4177 H   0  0  0  0  0  0  0  0  0  0  0  0
  2  1  1  0  0  0  0
  2  3  2  0  0  0  0
  3  4  1  0  0  0  0
  3 28  1  0  0  0  0
  5  6  1  0  0  0  0
  5  4  2  0  0  0  0
  6 15  1  0  0  0  0
  7  9  1  0  0  0  0
  7  6  1  0  0  0  0
  8  7  2  0  0  0  0
  9 14  1  0  0  0  0
 10  9  2  0  0  0  0
 10 11  1  0  0  0  0
 11 12  2  0  0  0  0
 12 13  1  0  0  0  0
 12 30  1  0  0  0  0
 14 15  1  0  0  0  0
 14 13  2  0  0  0  0
 15 31  1  1  0  0  0
 16 15  1  0  0  0  0
 16 17  1  0  0  0  0
 17 18  2  0  0  0  0
 19 17  1  0  0  0  0
 19 24  1  0  0  0  0
 20 19  1  0  0  0  0
 21 20  1  0  0  0  0
 21 34  1  0  0  0  0
 21 22  1  0  0  0  0
 22 23  1  0  0  0  0
 23 24  1  0  0  0  0
 23 37  1  0  0  0  0
 24 39  1  0  0  0  0
 24 38  1  0  0  0  0
 25 40  1  0  0  0  0
 25 22  1  0  0  0  0
 26 27  2  0  0  0  0
 26  5  1  0  0  0  0
 27  2  1  0  0  0  0
 29 11  1  0  0  0  0
 32 20  1  0  0  0  0
 33 20  1  0  0  0  0
 35 21  1  0  0  0  0
 36 23  1  0  0  0  0
 41 25  1  0  0  0  0
 42 25  1  0  0  0  0
 43 26  1  0  0  0  0
 44 27  1  0  0  0  0
M  END
