omegapdb_1m5f_09.xyz
 OpenBabel11041815263D

 25 25  0  0  1  0  0  0  0  0999 V2000
   -1.6886   -3.6992   -0.6944 O   0  0  0  0  0  0  0  0  0  0  0  0
   -0.8306   -2.6653   -0.7201 C   0  0  0  0  0  0  0  0  0  0  0  0
    0.3426   -2.8056   -0.9786 O   0  0  0  0  0  0  0  0  0  0  0  0
   -1.4323   -1.3524   -0.3979 C   0  0  0  0  0  0  0  0  0  0  0  0
   -2.7077   -1.3086   -0.0167 N   0  0  0  0  0  0  0  0  0  0  0  0
   -2.9694    0.0090    0.2338 O   0  0  0  0  0  0  0  0  0  0  0  0
   -1.8530    0.7476    0.0043 C   0  0  0  0  0  0  0  0  0  0  0  0
   -0.8362   -0.0721   -0.4137 C   0  0  0  0  0  0  0  0  0  0  0  0
    0.5622    0.3010   -0.7624 C   0  0  0  0  0  0  0  0  0  0  0  0
    1.4887    0.0645    0.4385 C   0  0  2  0  0  0  0  0  0  0  0  0
    1.0196    0.8216    1.5917 N   0  0  0  0  0  0  0  0  0  0  0  0
    2.9036    0.4924    0.1228 C   0  0  0  0  0  0  0  0  0  0  0  0
    3.6020    1.1640    0.8482 O   0  0  0  0  0  0  0  0  0  0  0  0
    3.3183    0.0169   -1.0682 O   0  0  0  0  0  0  0  0  0  0  0  0
   -1.9558    2.2067    0.2347 C   0  0  0  0  0  0  0  0  0  0  0  0
   -2.5613   -3.3479   -0.4513 H   0  0  0  0  0  0  0  0  0  0  0  0
    0.9047   -0.2871   -1.6100 H   0  0  0  0  0  0  0  0  0  0  0  0
    0.6013    1.3581   -1.0267 H   0  0  0  0  0  0  0  0  0  0  0  0
    1.5374   -1.0173    0.6063 H   0  0  0  0  0  0  0  0  0  0  0  0
    1.8237    1.0970    2.1445 H   0  0  0  0  0  0  0  0  0  0  0  0
    0.4314    0.2422    2.1748 H   0  0  0  0  0  0  0  0  0  0  0  0
    4.2369    0.3115   -1.1629 H   0  0  0  0  0  0  0  0  0  0  0  0
   -2.3815    2.7156   -0.6295 H   0  0  0  0  0  0  0  0  0  0  0  0
   -2.5914    2.4052    1.0950 H   0  0  0  0  0  0  0  0  0  0  0  0
   -0.9644    2.6023    0.4376 H   0  0  0  0  0  0  0  0  0  0  0  0
  1 16  1  0  0  0  0
  2  1  1  0  0  0  0
  2  4  1  0  0  0  0
  3  2  2  0  0  0  0
  4  5  2  0  0  0  0
  5  6  1  0  0  0  0
  7  6  1  0  0  0  0
  7 15  1  0  0  0  0
  8  4  1  0  0  0  0
  8  7  2  0  0  0  0
  9  8  1  0  0  0  0
  9 10  1  0  0  0  0
 10 19  1  1  0  0  0
 10 11  1  0  0  0  0
 11 20  1  0  0  0  0
 11 21  1  0  0  0  0
 12 10  1  0  0  0  0
 12 13  2  0  0  0  0
 14 12  1  0  0  0  0
 15 25  1  0  0  0  0
 15 24  1  0  0  0  0
 17  9  1  0  0  0  0
 18  9  1  0  0  0  0
 22 14  1  0  0  0  0
 23 15  1  0  0  0  0
M  END
