omegapdb_1z1r_22.xyz
 OpenBabel11041815263D

 66 68  0  0  1  0  0  0  0  0999 V2000
    0.5723    0.2420    0.1009 C   0  0  2  0  0  0  0  0  0  0  0  0
    0.7909   -0.8066   -1.0115 C   0  0  0  0  0  0  0  0  0  0  0  0
   -0.3524   -1.7823   -1.0197 C   0  0  0  0  0  0  0  0  0  0  0  0
   -0.6594   -2.5390    0.1169 C   0  0  0  0  0  0  0  0  0  0  0  0
   -1.8429   -3.2671    0.1935 C   0  0  0  0  0  0  0  0  0  0  0  0
   -2.7366   -3.2573   -0.8799 C   0  0  0  0  0  0  0  0  0  0  0  0
   -2.4025   -2.5806   -2.0504 C   0  0  0  0  0  0  0  0  0  0  0  0
   -1.2213   -1.8445   -2.1110 C   0  0  0  0  0  0  0  0  0  0  0  0
   -3.9635   -3.8748   -0.7929 O   0  0  0  0  0  0  0  0  0  0  0  0
   -4.8080   -3.2195    0.1737 C   0  0  0  0  0  0  0  0  0  0  0  0
   -5.1279   -1.7987   -0.2695 C   0  0  0  0  0  0  0  0  0  0  0  0
   -5.6929   -0.9035    0.8408 C   0  0  0  0  0  0  0  0  0  0  0  0
   -4.8748   -0.9854    2.1136 C   0  0  0  0  0  0  0  0  0  0  0  0
   -5.2338   -1.6883    3.0525 O   0  0  0  0  0  0  0  0  0  0  0  0
   -3.7047   -0.2859    2.1693 N   0  0  0  0  0  0  0  0  0  0  0  0
   -3.0707    0.4973    1.1434 C   0  0  2  0  0  0  0  0  0  0  0  0
   -1.5614    0.2719    1.2819 C   0  0  0  0  0  0  0  0  0  0  0  0
   -1.0798   -0.1392    2.3360 O   0  0  0  0  0  0  0  0  0  0  0  0
   -0.8303    0.5979    0.1932 N   0  0  0  0  0  0  0  0  0  0  0  0
   -3.3766    1.9971    1.2710 C   0  0  0  0  0  0  0  0  0  0  0  0
   -2.8540    2.7446    0.0609 C   0  0  0  0  0  0  0  0  0  0  0  0
   -2.9353    2.2707   -1.0688 O   0  0  0  0  0  0  0  0  0  0  0  0
   -2.3077    3.9584    0.3037 N   0  0  0  0  0  0  0  0  0  0  0  0
    1.4027    1.5192   -0.0296 C   0  0  2  0  0  0  0  0  0  0  0  0
    1.0304    2.2875   -1.1659 O   0  0  0  0  0  0  0  0  0  0  0  0
    2.9123    1.2748   -0.0024 C   0  0  0  0  0  0  0  0  0  0  0  0
    3.3886    0.8974   -1.3350 N   0  0  0  0  0  0  0  0  0  0  0  0
    4.6250   -0.2076   -1.4369 S   0  0  0  0  0  0  0  0  0  0  0  0
    4.9717   -0.2650   -2.8392 O   0  0  0  0  0  0  0  0  0  0  0  0
    4.1954   -1.3701   -0.6883 O   0  0  0  0  0  0  0  0  0  0  0  0
    5.9744    0.5289   -0.5531 C   0  0  0  0  0  0  0  0  0  0  0  0
    6.1767    0.1993    0.7857 C   0  0  0  0  0  0  0  0  0  0  0  0
    7.2078    0.8260    1.4824 C   0  0  0  0  0  0  0  0  0  0  0  0
    8.0137    1.7681    0.8458 C   0  0  0  0  0  0  0  0  0  0  0  0
    7.8011    2.0821   -0.4968 C   0  0  0  0  0  0  0  0  0  0  0  0
    6.7762    1.4642   -1.2068 C   0  0  0  0  0  0  0  0  0  0  0  0
    0.8132   -0.2104    1.0637 H   0  0  0  0  0  0  0  0  0  0  0  0
    0.8441   -0.3250   -1.9902 H   0  0  0  0  0  0  0  0  0  0  0  0
    1.7506   -1.2982   -0.8501 H   0  0  0  0  0  0  0  0  0  0  0  0
    0.0057   -2.5238    0.9715 H   0  0  0  0  0  0  0  0  0  0  0  0
   -2.0878   -3.8226    1.0887 H   0  0  0  0  0  0  0  0  0  0  0  0
   -3.0960   -2.5998   -2.8800 H   0  0  0  0  0  0  0  0  0  0  0  0
   -0.9934   -1.2777   -3.0058 H   0  0  0  0  0  0  0  0  0  0  0  0
   -5.7030   -3.8337    0.2440 H   0  0  0  0  0  0  0  0  0  0  0  0
   -4.3202   -3.2222    1.1496 H   0  0  0  0  0  0  0  0  0  0  0  0
   -4.2065   -1.3633   -0.6541 H   0  0  0  0  0  0  0  0  0  0  0  0
   -5.8264   -1.8253   -1.1064 H   0  0  0  0  0  0  0  0  0  0  0  0
   -5.7557    0.1217    0.4717 H   0  0  0  0  0  0  0  0  0  0  0  0
   -6.6949   -1.2249    1.1173 H   0  0  0  0  0  0  0  0  0  0  0  0
   -3.1169   -0.4827    2.9708 H   0  0  0  0  0  0  0  0  0  0  0  0
   -3.3881    0.1800    0.1537 H   0  0  0  0  0  0  0  0  0  0  0  0
   -1.3224    0.8931   -0.6399 H   0  0  0  0  0  0  0  0  0  0  0  0
   -4.4596    2.1284    1.3032 H   0  0  0  0  0  0  0  0  0  0  0  0
   -2.9659    2.3815    2.2055 H   0  0  0  0  0  0  0  0  0  0  0  0
   -2.1558    4.2849    1.2388 H   0  0  0  0  0  0  0  0  0  0  0  0
   -1.8819    4.4478   -0.4648 H   0  0  0  0  0  0  0  0  0  0  0  0
    1.1480    2.1423    0.8286 H   0  0  0  0  0  0  0  0  0  0  0  0
    1.2354    1.7477   -1.9391 H   0  0  0  0  0  0  0  0  0  0  0  0
    3.4257    2.1719    0.3485 H   0  0  0  0  0  0  0  0  0  0  0  0
    3.1395    0.4608    0.6857 H   0  0  0  0  0  0  0  0  0  0  0  0
    3.6048    1.6915   -1.9275 H   0  0  0  0  0  0  0  0  0  0  0  0
    5.5554   -0.5526    1.2508 H   0  0  0  0  0  0  0  0  0  0  0  0
    7.3841    0.5741    2.5189 H   0  0  0  0  0  0  0  0  0  0  0  0
    8.8138    2.2490    1.3911 H   0  0  0  0  0  0  0  0  0  0  0  0
    8.4380    2.8018   -0.9918 H   0  0  0  0  0  0  0  0  0  0  0  0
    6.6132    1.6734   -2.2550 H   0  0  0  0  0  0  0  0  0  0  0  0
  1 19  1  0  0  0  0
  1 37  1  1  0  0  0
  2 39  1  0  0  0  0
  2  1  1  0  0  0  0
  3  2  1  0  0  0  0
  3  4  2  0  0  0  0
  4  5  1  0  0  0  0
  4 40  1  0  0  0  0
  5 41  1  0  0  0  0
  6  9  1  0  0  0  0
  6  5  2  0  0  0  0
  7  6  1  0  0  0  0
  8  7  2  0  0  0  0
  8  3  1  0  0  0  0
  9 10  1  0  0  0  0
 10 44  1  0  0  0  0
 10 45  1  0  0  0  0
 11 10  1  0  0  0  0
 11 12  1  0  0  0  0
 12 49  1  0  0  0  0
 12 13  1  0  0  0  0
 13 15  1  0  0  0  0
 13 14  2  0  0  0  0
 15 50  1  0  0  0  0
 16 51  1  6  0  0  0
 16 20  1  0  0  0  0
 16 17  1  0  0  0  0
 16 15  1  0  0  0  0
 17 18  2  0  0  0  0
 19 17  1  0  0  0  0
 20 53  1  0  0  0  0
 20 54  1  0  0  0  0
 21 23  1  0  0  0  0
 21 20  1  0  0  0  0
 22 21  2  0  0  0  0
 23 55  1  0  0  0  0
 24 26  1  0  0  0  0
 24  1  1  0  0  0  0
 24 57  1  1  0  0  0
 25 24  1  0  0  0  0
 26 59  1  0  0  0  0
 26 60  1  0  0  0  0
 27 26  1  0  0  0  0
 28 27  1  0  0  0  0
 28 30  2  0  0  0  0
 28 31  1  0  0  0  0
 29 28  2  0  0  0  0
 31 32  1  0  0  0  0
 32 62  1  0  0  0  0
 32 33  2  0  0  0  0
 33 63  1  0  0  0  0
 34 64  1  0  0  0  0
 34 33  1  0  0  0  0
 35 34  2  0  0  0  0
 36 31  2  0  0  0  0
 36 35  1  0  0  0  0
 38  2  1  0  0  0  0
 42  7  1  0  0  0  0
 43  8  1  0  0  0  0
 46 11  1  0  0  0  0
 47 11  1  0  0  0  0
 48 12  1  0  0  0  0
 52 19  1  0  0  0  0
 56 23  1  0  0  0  0
 58 25  1  0  0  0  0
 61 27  1  0  0  0  0
 65 35  1  0  0  0  0
 66 36  1  0  0  0  0
M  END
