omegapdb_2f7p_14.xyz
 OpenBabel11041815263D

 34 35  0  0  1  0  0  0  0  0999 V2000
   -1.1817   -0.8375   -0.1133 C   0  0  1  0  0  0  0  0  0  0  0  0
    0.2652   -0.8184   -0.0696 N   0  0  0  0  0  0  0  0  0  0  0  0
    0.9102    0.4942    0.0164 C   0  0  0  0  0  0  0  0  0  0  0  0
    2.4021    0.3117    0.0258 C   0  0  0  0  0  0  0  0  0  0  0  0
    3.2050    0.9050   -0.9489 C   0  0  0  0  0  0  0  0  0  0  0  0
    4.5886    0.7325   -0.9335 C   0  0  0  0  0  0  0  0  0  0  0  0
    5.1807   -0.0432    0.0596 C   0  0  0  0  0  0  0  0  0  0  0  0
    4.3847   -0.6459    1.0341 C   0  0  0  0  0  0  0  0  0  0  0  0
    3.0046   -0.4708    1.0156 C   0  0  0  0  0  0  0  0  0  0  0  0
   -1.9059   -0.5951    1.2106 C   0  0  1  0  0  0  0  0  0  0  0  0
   -1.6032    0.6366    1.8623 O   0  0  0  0  0  0  0  0  0  0  0  0
   -3.3642   -0.5756    0.7505 C   0  0  1  0  0  0  0  0  0  0  0  0
   -4.2536   -0.0656    1.7245 O   0  0  0  0  0  0  0  0  0  0  0  0
   -3.3179    0.3179   -0.5110 C   0  0  1  0  0  0  0  0  0  0  0  0
   -3.3986    1.6865   -0.1092 O   0  0  0  0  0  0  0  0  0  0  0  0
   -1.9130    0.1043   -1.1008 C   0  0  2  0  0  0  0  0  0  0  0  0
   -1.8113   -0.4395   -2.8254 S   0  0  0  0  0  0  0  0  0  0  0  0
   -1.4547   -1.8617   -0.3901 H   0  0  0  0  0  0  0  0  0  0  0  0
    0.6187   -1.2892   -0.8962 H   0  0  0  0  0  0  0  0  0  0  0  0
    0.5816    0.9641    0.9418 H   0  0  0  0  0  0  0  0  0  0  0  0
    0.6475    1.1652   -0.8117 H   0  0  0  0  0  0  0  0  0  0  0  0
    2.7432    1.5055   -1.7230 H   0  0  0  0  0  0  0  0  0  0  0  0
    5.1992    1.1985   -1.6950 H   0  0  0  0  0  0  0  0  0  0  0  0
    6.2534   -0.1796    0.0742 H   0  0  0  0  0  0  0  0  0  0  0  0
    4.8408   -1.2501    1.8068 H   0  0  0  0  0  0  0  0  0  0  0  0
    2.3795   -0.9448    1.7608 H   0  0  0  0  0  0  0  0  0  0  0  0
   -1.6877   -1.3779    1.9338 H   0  0  0  0  0  0  0  0  0  0  0  0
   -1.9192    1.3443    1.2766 H   0  0  0  0  0  0  0  0  0  0  0  0
   -3.6855   -1.5826    0.4808 H   0  0  0  0  0  0  0  0  0  0  0  0
   -3.6864    0.3786    2.3711 H   0  0  0  0  0  0  0  0  0  0  0  0
   -4.1099    0.0858   -1.2233 H   0  0  0  0  0  0  0  0  0  0  0  0
   -4.1562    1.7227    0.4935 H   0  0  0  0  0  0  0  0  0  0  0  0
   -1.4335    1.0841   -1.1128 H   0  0  0  0  0  0  0  0  0  0  0  0
   -2.3229   -1.6598   -2.6193 H   0  0  0  0  0  0  0  0  0  0  0  0
  1 18  1  6  0  0  0
  1  2  1  0  0  0  0
  1 10  1  0  0  0  0
  2  3  1  0  0  0  0
  3  4  1  0  0  0  0
  3 20  1  0  0  0  0
  4  9  2  0  0  0  0
  5  6  2  0  0  0  0
  5  4  1  0  0  0  0
  6  7  1  0  0  0  0
  7 24  1  0  0  0  0
  7  8  2  0  0  0  0
  8 25  1  0  0  0  0
  9  8  1  0  0  0  0
  9 26  1  0  0  0  0
 10 11  1  0  0  0  0
 10 27  1  1  0  0  0
 12 29  1  6  0  0  0
 12 10  1  0  0  0  0
 12 13  1  0  0  0  0
 13 30  1  0  0  0  0
 14 31  1  6  0  0  0
 14 15  1  0  0  0  0
 14 12  1  0  0  0  0
 15 32  1  0  0  0  0
 16 33  1  1  0  0  0
 16 14  1  0  0  0  0
 16  1  1  0  0  0  0
 17 34  1  0  0  0  0
 17 16  1  0  0  0  0
 19  2  1  0  0  0  0
 21  3  1  0  0  0  0
 22  5  1  0  0  0  0
 23  6  1  0  0  0  0
 28 11  1  0  0  0  0
M  END
