omegapdb_1z1r_05.xyz
 OpenBabel11041815263D

 66 68  0  0  1  0  0  0  0  0999 V2000
    0.4026   -0.0823    0.6534 C   0  0  2  0  0  0  0  0  0  0  0  0
    0.9372   -1.0713   -0.3977 C   0  0  0  0  0  0  0  0  0  0  0  0
   -0.1302   -2.0672   -0.7434 C   0  0  0  0  0  0  0  0  0  0  0  0
   -0.5438   -3.0249    0.1872 C   0  0  0  0  0  0  0  0  0  0  0  0
   -1.6830   -3.7917   -0.0359 C   0  0  0  0  0  0  0  0  0  0  0  0
   -2.4279   -3.6081   -1.2007 C   0  0  0  0  0  0  0  0  0  0  0  0
   -1.9807   -2.7191   -2.1784 C   0  0  0  0  0  0  0  0  0  0  0  0
   -0.8449   -1.9499   -1.9388 C   0  0  0  0  0  0  0  0  0  0  0  0
   -3.5860   -4.3255   -1.3546 O   0  0  0  0  0  0  0  0  0  0  0  0
   -4.7648   -3.5152   -1.4790 C   0  0  0  0  0  0  0  0  0  0  0  0
   -5.1073   -2.7346   -0.2180 C   0  0  0  0  0  0  0  0  0  0  0  0
   -4.3546   -1.4216   -0.0299 C   0  0  0  0  0  0  0  0  0  0  0  0
   -4.8348   -0.6976    1.2116 C   0  0  0  0  0  0  0  0  0  0  0  0
   -5.6289   -1.1906    1.9972 O   0  0  0  0  0  0  0  0  0  0  0  0
   -4.3514    0.5795    1.4131 N   0  0  0  0  0  0  0  0  0  0  0  0
   -3.1878    1.1341    0.7658 C   0  0  2  0  0  0  0  0  0  0  0  0
   -1.8772    0.5625    1.3105 C   0  0  0  0  0  0  0  0  0  0  0  0
   -1.6762    0.4726    2.5185 O   0  0  0  0  0  0  0  0  0  0  0  0
   -0.9763    0.2465    0.3556 N   0  0  0  0  0  0  0  0  0  0  0  0
   -3.1554    2.6451    1.0257 C   0  0  0  0  0  0  0  0  0  0  0  0
   -1.8720    3.2378    0.4874 C   0  0  0  0  0  0  0  0  0  0  0  0
   -1.4947    3.0192   -0.6659 O   0  0  0  0  0  0  0  0  0  0  0  0
   -1.1612    3.9928    1.3500 N   0  0  0  0  0  0  0  0  0  0  0  0
    1.1942    1.2282    0.7167 C   0  0  2  0  0  0  0  0  0  0  0  0
    1.1398    1.9249   -0.5229 O   0  0  0  0  0  0  0  0  0  0  0  0
    2.6608    1.0147    1.0211 C   0  0  0  0  0  0  0  0  0  0  0  0
    3.2846    2.3331    1.0980 N   0  0  0  0  0  0  0  0  0  0  0  0
    4.9026    2.3854    1.4438 S   0  0  0  0  0  0  0  0  0  0  0  0
    5.0861    1.6420    2.6718 O   0  0  0  0  0  0  0  0  0  0  0  0
    5.2927    3.7719    1.3075 O   0  0  0  0  0  0  0  0  0  0  0  0
    5.6751    1.4610    0.1388 C   0  0  0  0  0  0  0  0  0  0  0  0
    5.9444    2.0982   -1.0719 C   0  0  0  0  0  0  0  0  0  0  0  0
    6.4927    1.3576   -2.1146 C   0  0  0  0  0  0  0  0  0  0  0  0
    6.7613   -0.0011   -1.9458 C   0  0  0  0  0  0  0  0  0  0  0  0
    6.4913   -0.6230   -0.7282 C   0  0  0  0  0  0  0  0  0  0  0  0
    5.9418    0.1059    0.3247 C   0  0  0  0  0  0  0  0  0  0  0  0
    0.3972   -0.5425    1.6428 H   0  0  0  0  0  0  0  0  0  0  0  0
    1.2325   -0.5121   -1.2871 H   0  0  0  0  0  0  0  0  0  0  0  0
    1.8260   -1.5619    0.0005 H   0  0  0  0  0  0  0  0  0  0  0  0
    0.0045   -3.1443    1.1142 H   0  0  0  0  0  0  0  0  0  0  0  0
   -2.0307   -4.5088    0.6951 H   0  0  0  0  0  0  0  0  0  0  0  0
   -2.5283   -2.6180   -3.1056 H   0  0  0  0  0  0  0  0  0  0  0  0
   -0.5142   -1.2385   -2.6870 H   0  0  0  0  0  0  0  0  0  0  0  0
   -5.5534   -4.2330   -1.6918 H   0  0  0  0  0  0  0  0  0  0  0  0
   -4.6742   -2.8478   -2.3411 H   0  0  0  0  0  0  0  0  0  0  0  0
   -6.1753   -2.5121   -0.2409 H   0  0  0  0  0  0  0  0  0  0  0  0
   -4.9549   -3.3771    0.6487 H   0  0  0  0  0  0  0  0  0  0  0  0
   -3.2784   -1.5840    0.0638 H   0  0  0  0  0  0  0  0  0  0  0  0
   -4.4917   -0.7768   -0.9025 H   0  0  0  0  0  0  0  0  0  0  0  0
   -4.5200    0.8947    2.3593 H   0  0  0  0  0  0  0  0  0  0  0  0
   -3.2563    0.9690   -0.3083 H   0  0  0  0  0  0  0  0  0  0  0  0
   -1.2194    0.4433   -0.6027 H   0  0  0  0  0  0  0  0  0  0  0  0
   -4.0008    3.1173    0.5260 H   0  0  0  0  0  0  0  0  0  0  0  0
   -3.2422    2.8155    2.0990 H   0  0  0  0  0  0  0  0  0  0  0  0
   -0.2817    4.3791    1.0489 H   0  0  0  0  0  0  0  0  0  0  0  0
   -1.4207    4.0688    2.3158 H   0  0  0  0  0  0  0  0  0  0  0  0
    0.7606    1.8365    1.5163 H   0  0  0  0  0  0  0  0  0  0  0  0
    0.2648    2.3430   -0.6145 H   0  0  0  0  0  0  0  0  0  0  0  0
    3.1130    0.3978    0.2376 H   0  0  0  0  0  0  0  0  0  0  0  0
    2.7816    0.5169    1.9819 H   0  0  0  0  0  0  0  0  0  0  0  0
    3.0833    2.8806    0.2657 H   0  0  0  0  0  0  0  0  0  0  0  0
    5.7493    3.1565   -1.1756 H   0  0  0  0  0  0  0  0  0  0  0  0
    6.7156    1.8403   -3.0560 H   0  0  0  0  0  0  0  0  0  0  0  0
    7.1892   -0.5707   -2.7591 H   0  0  0  0  0  0  0  0  0  0  0  0
    6.7117   -1.6733   -0.5958 H   0  0  0  0  0  0  0  0  0  0  0  0
    5.7445   -0.3479    1.2856 H   0  0  0  0  0  0  0  0  0  0  0  0
  1 24  1  0  0  0  0
  1 37  1  1  0  0  0
  2 39  1  0  0  0  0
  2  1  1  0  0  0  0
  3  2  1  0  0  0  0
  3  4  2  0  0  0  0
  4 40  1  0  0  0  0
  5  4  1  0  0  0  0
  5 41  1  0  0  0  0
  6  5  2  0  0  0  0
  7  8  2  0  0  0  0
  7  6  1  0  0  0  0
  8  3  1  0  0  0  0
  9  6  1  0  0  0  0
 10  9  1  0  0  0  0
 10 11  1  0  0  0  0
 11 12  1  0  0  0  0
 11 47  1  0  0  0  0
 12 48  1  0  0  0  0
 12 13  1  0  0  0  0
 13 15  1  0  0  0  0
 13 14  2  0  0  0  0
 15 50  1  0  0  0  0
 16 51  1  6  0  0  0
 16 20  1  0  0  0  0
 16 17  1  0  0  0  0
 16 15  1  0  0  0  0
 17 18  2  0  0  0  0
 19  1  1  0  0  0  0
 19 17  1  0  0  0  0
 20 54  1  0  0  0  0
 21 20  1  0  0  0  0
 21 23  1  0  0  0  0
 22 21  2  0  0  0  0
 23 56  1  0  0  0  0
 24 26  1  0  0  0  0
 24 57  1  1  0  0  0
 25 24  1  0  0  0  0
 26 27  1  0  0  0  0
 26 60  1  0  0  0  0
 27 28  1  0  0  0  0
 28 29  2  0  0  0  0
 30 28  2  0  0  0  0
 31 36  1  0  0  0  0
 31 28  1  0  0  0  0
 32 31  2  0  0  0  0
 33 34  2  0  0  0  0
 33 32  1  0  0  0  0
 34 35  1  0  0  0  0
 35 65  1  0  0  0  0
 35 36  2  0  0  0  0
 36 66  1  0  0  0  0
 38  2  1  0  0  0  0
 42  7  1  0  0  0  0
 43  8  1  0  0  0  0
 44 10  1  0  0  0  0
 45 10  1  0  0  0  0
 46 11  1  0  0  0  0
 49 12  1  0  0  0  0
 52 19  1  0  0  0  0
 53 20  1  0  0  0  0
 55 23  1  0  0  0  0
 58 25  1  0  0  0  0
 59 26  1  0  0  0  0
 61 27  1  0  0  0  0
 62 32  1  0  0  0  0
 63 33  1  0  0  0  0
 64 34  1  0  0  0  0
M  END
