omegapdb_1gs5_14.xyz
 OpenBabel11041815263D

 24 23  0  0  1  0  0  0  0  0999 V2000
   -0.5125   -0.5428   -0.1753 C   0  0  2  0  0  0  0  0  0  0  0  0
   -1.0845   -1.7510    0.5230 C   0  0  0  0  0  0  0  0  0  0  0  0
   -2.1921   -1.8132    1.0066 O   0  0  0  0  0  0  0  0  0  0  0  0
   -0.1979   -2.7666    0.5801 O   0  0  0  0  0  0  0  0  0  0  0  0
    0.6221    0.0911    0.6490 C   0  0  0  0  0  0  0  0  0  0  0  0
    1.9682   -0.5741    0.4281 C   0  0  0  0  0  0  0  0  0  0  0  0
    3.0468    0.0466    1.2864 C   0  0  0  0  0  0  0  0  0  0  0  0
    2.8564    0.8694    2.1434 O   0  0  0  0  0  0  0  0  0  0  0  0
    4.3057   -0.4074    1.0427 O   0  0  0  0  0  0  0  0  0  0  0  0
   -1.5957    0.3818   -0.3878 N   0  0  0  0  0  0  0  0  0  0  0  0
   -1.4806    1.3515   -1.3341 C   0  0  0  0  0  0  0  0  0  0  0  0
   -0.4538    1.4894   -1.9904 O   0  0  0  0  0  0  0  0  0  0  0  0
   -2.6836    2.2432   -1.5059 C   0  0  0  0  0  0  0  0  0  0  0  0
   -0.1125   -0.8458   -1.1454 H   0  0  0  0  0  0  0  0  0  0  0  0
   -0.6403   -3.4749    1.0738 H   0  0  0  0  0  0  0  0  0  0  0  0
    0.6908    1.1306    0.3366 H   0  0  0  0  0  0  0  0  0  0  0  0
    0.3662    0.0895    1.7084 H   0  0  0  0  0  0  0  0  0  0  0  0
    2.2575   -0.4825   -0.6221 H   0  0  0  0  0  0  0  0  0  0  0  0
    1.9283   -1.6402    0.6563 H   0  0  0  0  0  0  0  0  0  0  0  0
    4.2721   -1.0443    0.3200 H   0  0  0  0  0  0  0  0  0  0  0  0
   -2.4583    0.2114    0.1024 H   0  0  0  0  0  0  0  0  0  0  0  0
   -2.3984    3.2617   -1.2527 H   0  0  0  0  0  0  0  0  0  0  0  0
   -2.9753    2.2324   -2.5530 H   0  0  0  0  0  0  0  0  0  0  0  0
   -3.5283    1.9445   -0.8905 H   0  0  0  0  0  0  0  0  0  0  0  0
  1 14  1  6  0  0  0
  1  2  1  0  0  0  0
  1  5  1  0  0  0  0
  2  4  1  0  0  0  0
  2  3  2  0  0  0  0
  4 15  1  0  0  0  0
  5 17  1  0  0  0  0
  6  5  1  0  0  0  0
  6 19  1  0  0  0  0
  6  7  1  0  0  0  0
  7  8  2  0  0  0  0
  9  7  1  0  0  0  0
 10  1  1  0  0  0  0
 10 21  1  0  0  0  0
 11 10  1  0  0  0  0
 12 11  2  0  0  0  0
 13 11  1  0  0  0  0
 13 22  1  0  0  0  0
 13 24  1  0  0  0  0
 16  5  1  0  0  0  0
 18  6  1  0  0  0  0
 20  9  1  0  0  0  0
 23 13  1  0  0  0  0
M  END
