omegapdb_1v2k_08.xyz
 OpenBabel11041815263D

 61 65  0  0  0  0  0  0  0  0999 V2000
    8.9864    0.2173   -1.3268 N   0  0  0  0  0  0  0  0  0  0  0  0
    8.5381   -0.7841   -0.5624 C   0  0  0  0  0  0  0  0  0  0  0  0
    7.2852   -0.8215    0.0435 C   0  0  0  0  0  0  0  0  0  0  0  0
    6.4016    0.2532   -0.1253 C   0  0  0  0  0  0  0  0  0  0  0  0
    6.8683    1.3082   -0.9260 C   0  0  0  0  0  0  0  0  0  0  0  0
    8.1335    1.2413   -1.4886 C   0  0  0  0  0  0  0  0  0  0  0  0
    5.1512    0.3172    0.4917 N   0  0  0  0  0  0  0  0  0  0  0  0
    4.0358    0.7188   -0.3638 C   0  0  0  0  0  0  0  0  0  0  0  0
    2.8631    1.1871    0.4798 C   0  0  0  0  0  0  0  0  0  0  0  0
    2.3899    0.0686    1.4162 C   0  0  0  0  0  0  0  0  0  0  0  0
    3.5839   -0.4483    2.2159 C   0  0  0  0  0  0  0  0  0  0  0  0
    4.7912   -0.8018    1.3555 C   0  0  0  0  0  0  0  0  0  0  0  0
    1.7193   -1.0546    0.6389 C   0  0  0  0  0  0  0  0  0  0  0  0
    2.2182   -2.1753    0.5421 O   0  0  0  0  0  0  0  0  0  0  0  0
    0.5380   -0.7667    0.0133 N   0  0  0  0  0  0  0  0  0  0  0  0
   -0.2620    0.4376    0.1919 C   0  0  0  0  0  0  0  0  0  0  0  0
   -1.7283    0.0393    0.2031 C   0  0  0  0  0  0  0  0  0  0  0  0
   -2.1309   -0.5679   -1.0787 N   0  0  0  0  0  0  0  0  0  0  0  0
   -1.0172   -1.2340   -1.7962 C   0  0  0  0  0  0  0  0  0  0  0  0
   -0.0680   -1.8323   -0.7814 C   0  0  0  0  0  0  0  0  0  0  0  0
   -2.9608    0.4848   -2.0773 S   0  0  0  0  0  0  0  0  0  0  0  0
   -2.3209    1.7920   -2.1159 O   0  0  0  0  0  0  0  0  0  0  0  0
   -3.1927   -0.2427   -3.3078 O   0  0  0  0  0  0  0  0  0  0  0  0
   -4.4715    0.6601   -1.1692 C   0  0  0  0  0  0  0  0  0  0  0  0
   -5.2371   -0.4623   -0.9347 C   0  0  0  0  0  0  0  0  0  0  0  0
   -6.4572   -0.3362   -0.2403 C   0  0  0  0  0  0  0  0  0  0  0  0
   -6.8778    0.9584    0.2046 C   0  0  0  0  0  0  0  0  0  0  0  0
   -6.0609    2.0811   -0.0661 C   0  0  0  0  0  0  0  0  0  0  0  0
   -4.8699    1.9426   -0.7441 C   0  0  0  0  0  0  0  0  0  0  0  0
   -8.0993    1.0862    0.9021 C   0  0  0  0  0  0  0  0  0  0  0  0
   -8.8674   -0.0298    1.1434 C   0  0  0  0  0  0  0  0  0  0  0  0
   -8.4659   -1.3104    0.7091 C   0  0  0  0  0  0  0  0  0  0  0  0
   -7.2798   -1.4560    0.0291 C   0  0  0  0  0  0  0  0  0  0  0  0
  -10.3654    0.1228    1.9982 Cl  0  0  0  0  0  0  0  0  0  0  0  0
    9.2140   -1.6206   -0.4295 H   0  0  0  0  0  0  0  0  0  0  0  0
    7.0137   -1.6918    0.6197 H   0  0  0  0  0  0  0  0  0  0  0  0
    6.2710    2.1938   -1.0863 H   0  0  0  0  0  0  0  0  0  0  0  0
    8.4884    2.0634   -2.0984 H   0  0  0  0  0  0  0  0  0  0  0  0
    4.3574    1.5224   -1.0193 H   0  0  0  0  0  0  0  0  0  0  0  0
    3.7287   -0.1237   -1.0025 H   0  0  0  0  0  0  0  0  0  0  0  0
    3.1858    2.0401    1.0800 H   0  0  0  0  0  0  0  0  0  0  0  0
    2.0608    1.5243   -0.1762 H   0  0  0  0  0  0  0  0  0  0  0  0
    1.6624    0.4802    2.1196 H   0  0  0  0  0  0  0  0  0  0  0  0
    3.2970   -1.3288    2.7895 H   0  0  0  0  0  0  0  0  0  0  0  0
    3.8804    0.3338    2.9175 H   0  0  0  0  0  0  0  0  0  0  0  0
    5.6333   -1.0009    2.0166 H   0  0  0  0  0  0  0  0  0  0  0  0
    4.5828   -1.7061    0.7743 H   0  0  0  0  0  0  0  0  0  0  0  0
   -0.0972    1.1610   -0.6101 H   0  0  0  0  0  0  0  0  0  0  0  0
   -0.0095    0.9149    1.1356 H   0  0  0  0  0  0  0  0  0  0  0  0
   -2.3488    0.9130    0.3979 H   0  0  0  0  0  0  0  0  0  0  0  0
   -1.9106   -0.6830    1.0000 H   0  0  0  0  0  0  0  0  0  0  0  0
   -0.4680   -0.5314   -2.4302 H   0  0  0  0  0  0  0  0  0  0  0  0
   -1.4325   -2.0100   -2.4328 H   0  0  0  0  0  0  0  0  0  0  0  0
   -0.5905   -2.5486   -0.1414 H   0  0  0  0  0  0  0  0  0  0  0  0
    0.7288   -2.3733   -1.2859 H   0  0  0  0  0  0  0  0  0  0  0  0
   -4.9039   -1.4323   -1.2815 H   0  0  0  0  0  0  0  0  0  0  0  0
   -6.3850    3.0587    0.2680 H   0  0  0  0  0  0  0  0  0  0  0  0
   -4.2376    2.7908   -0.9645 H   0  0  0  0  0  0  0  0  0  0  0  0
   -8.4291    2.0582    1.2433 H   0  0  0  0  0  0  0  0  0  0  0  0
   -9.0976   -2.1622    0.9161 H   0  0  0  0  0  0  0  0  0  0  0  0
   -6.9648   -2.4348   -0.3093 H   0  0  0  0  0  0  0  0  0  0  0  0
  1  2  1  0  0  0  0
  2 35  1  0  0  0  0
  2  3  2  0  0  0  0
  3 36  1  0  0  0  0
  4  3  1  0  0  0  0
  4  7  1  0  0  0  0
  5  4  2  0  0  0  0
  6  1  2  0  0  0  0
  6  5  1  0  0  0  0
  7 12  1  0  0  0  0
  8  9  1  0  0  0  0
  8  7  1  0  0  0  0
  9 41  1  0  0  0  0
  9 10  1  0  0  0  0
 10 43  1  0  0  0  0
 10 11  1  0  0  0  0
 11 44  1  0  0  0  0
 11 45  1  0  0  0  0
 12 46  1  0  0  0  0
 12 11  1  0  0  0  0
 13 10  1  0  0  0  0
 14 13  2  0  0  0  0
 15 16  1  0  0  0  0
 15 13  1  0  0  0  0
 16 17  1  0  0  0  0
 16 49  1  0  0  0  0
 17 50  1  0  0  0  0
 17 51  1  0  0  0  0
 18 17  1  0  0  0  0
 19 18  1  0  0  0  0
 19 20  1  0  0  0  0
 20 54  1  0  0  0  0
 20 15  1  0  0  0  0
 21 24  1  0  0  0  0
 21 18  1  0  0  0  0
 22 21  2  0  0  0  0
 23 21  2  0  0  0  0
 24 25  2  0  0  0  0
 24 29  1  0  0  0  0
 25 26  1  0  0  0  0
 26 33  2  0  0  0  0
 26 27  1  0  0  0  0
 27 30  2  0  0  0  0
 28 27  1  0  0  0  0
 28 57  1  0  0  0  0
 29 28  2  0  0  0  0
 30 31  1  0  0  0  0
 30 59  1  0  0  0  0
 31 34  1  0  0  0  0
 32 60  1  0  0  0  0
 32 31  2  0  0  0  0
 33 32  1  0  0  0  0
 37  5  1  0  0  0  0
 38  6  1  0  0  0  0
 39  8  1  0  0  0  0
 40  8  1  0  0  0  0
 42  9  1  0  0  0  0
 47 12  1  0  0  0  0
 48 16  1  0  0  0  0
 52 19  1  0  0  0  0
 53 19  1  0  0  0  0
 55 20  1  0  0  0  0
 56 25  1  0  0  0  0
 58 29  1  0  0  0  0
 61 33  1  0  0  0  0
M  END
