omegapdb_1m5f_00.xyz
 OpenBabel11041815263D

 25 25  0  0  1  0  0  0  0  0999 V2000
   -1.8396   -3.0725   -1.8311 O   0  0  0  0  0  0  0  0  0  0  0  0
   -0.9348   -2.2940   -1.2268 C   0  0  0  0  0  0  0  0  0  0  0  0
    0.2405   -2.5958   -1.1169 O   0  0  0  0  0  0  0  0  0  0  0  0
   -1.5074   -1.0415   -0.7057 C   0  0  0  0  0  0  0  0  0  0  0  0
   -2.7199   -0.6441   -1.1011 N   0  0  0  0  0  0  0  0  0  0  0  0
   -2.9337    0.5364   -0.4385 O   0  0  0  0  0  0  0  0  0  0  0  0
   -1.8727    0.8319    0.3463 C   0  0  0  0  0  0  0  0  0  0  0  0
   -0.9175   -0.1439    0.2162 C   0  0  0  0  0  0  0  0  0  0  0  0
    0.4053   -0.1883    0.9016 C   0  0  0  0  0  0  0  0  0  0  0  0
    1.4778    0.5909    0.1349 C   0  0  2  0  0  0  0  0  0  0  0  0
    1.8587   -0.0146   -1.1416 N   0  0  0  0  0  0  0  0  0  0  0  0
    2.7145    0.7509    1.0306 C   0  0  0  0  0  0  0  0  0  0  0  0
    2.6423    1.1488    2.1701 O   0  0  0  0  0  0  0  0  0  0  0  0
    3.8573    0.4264    0.4243 O   0  0  0  0  0  0  0  0  0  0  0  0
   -1.9496    2.0757    1.1469 C   0  0  0  0  0  0  0  0  0  0  0  0
   -1.3489   -3.8490   -2.1428 H   0  0  0  0  0  0  0  0  0  0  0  0
    0.3297    0.2421    1.8988 H   0  0  0  0  0  0  0  0  0  0  0  0
    0.7347   -1.2213    1.0139 H   0  0  0  0  0  0  0  0  0  0  0  0
    1.1134    1.6054   -0.0393 H   0  0  0  0  0  0  0  0  0  0  0  0
    1.5138   -0.9676   -1.2031 H   0  0  0  0  0  0  0  0  0  0  0  0
    1.4802    0.4975   -1.9251 H   0  0  0  0  0  0  0  0  0  0  0  0
    3.5556    0.1426   -0.4729 H   0  0  0  0  0  0  0  0  0  0  0  0
   -1.0670    2.1593    1.7767 H   0  0  0  0  0  0  0  0  0  0  0  0
   -2.8335    2.0727    1.7823 H   0  0  0  0  0  0  0  0  0  0  0  0
   -1.9991    2.9520    0.5022 H   0  0  0  0  0  0  0  0  0  0  0  0
  1  2  1  0  0  0  0
  2  3  2  0  0  0  0
  2  4  1  0  0  0  0
  4  8  1  0  0  0  0
  5  4  2  0  0  0  0
  5  6  1  0  0  0  0
  6  7  1  0  0  0  0
  7 15  1  0  0  0  0
  8  7  2  0  0  0  0
  8  9  1  0  0  0  0
  9 18  1  0  0  0  0
  9 17  1  0  0  0  0
 10 19  1  6  0  0  0
 10  9  1  0  0  0  0
 10 12  1  0  0  0  0
 11 10  1  0  0  0  0
 12 13  2  0  0  0  0
 14 12  1  0  0  0  0
 15 23  1  0  0  0  0
 15 24  1  0  0  0  0
 16  1  1  0  0  0  0
 20 11  1  0  0  0  0
 21 11  1  0  0  0  0
 22 14  1  0  0  0  0
 25 15  1  0  0  0  0
M  END
