omegapdb_2f7p_02.xyz
 OpenBabel11041815263D

 34 35  0  0  1  0  0  0  0  0999 V2000
   -0.6649   -0.3592    0.4658 C   0  0  1  0  0  0  0  0  0  0  0  0
    0.1619    0.1150    1.5516 N   0  0  0  0  0  0  0  0  0  0  0  0
    1.0886    1.1772    1.1972 C   0  0  0  0  0  0  0  0  0  0  0  0
    2.1661    0.6855    0.2620 C   0  0  0  0  0  0  0  0  0  0  0  0
    2.6501   -0.6216    0.3549 C   0  0  0  0  0  0  0  0  0  0  0  0
    3.6542   -1.0646   -0.5029 C   0  0  0  0  0  0  0  0  0  0  0  0
    4.1899   -0.2047   -1.4610 C   0  0  0  0  0  0  0  0  0  0  0  0
    3.7173    1.1025   -1.5564 C   0  0  0  0  0  0  0  0  0  0  0  0
    2.7086    1.5412   -0.7002 C   0  0  0  0  0  0  0  0  0  0  0  0
   -1.7297   -1.3281    0.9853 C   0  0  1  0  0  0  0  0  0  0  0  0
   -2.3406   -0.8931    2.1992 O   0  0  0  0  0  0  0  0  0  0  0  0
   -2.7607   -1.3353   -0.1406 C   0  0  1  0  0  0  0  0  0  0  0  0
   -4.0041   -1.8965    0.2371 O   0  0  0  0  0  0  0  0  0  0  0  0
   -2.8874    0.1535   -0.4964 C   0  0  1  0  0  0  0  0  0  0  0  0
   -3.7028    0.8049    0.4848 O   0  0  0  0  0  0  0  0  0  0  0  0
   -1.4627    0.7031   -0.3581 C   0  0  2  0  0  0  0  0  0  0  0  0
   -0.7960    0.9723   -2.0339 S   0  0  0  0  0  0  0  0  0  0  0  0
   -0.0313   -0.9098   -0.2350 H   0  0  0  0  0  0  0  0  0  0  0  0
   -0.4275    0.3823    2.3305 H   0  0  0  0  0  0  0  0  0  0  0  0
    0.6026    2.0476    0.7331 H   0  0  0  0  0  0  0  0  0  0  0  0
    1.5484    1.5304    2.1227 H   0  0  0  0  0  0  0  0  0  0  0  0
    2.2239   -1.2794    1.1008 H   0  0  0  0  0  0  0  0  0  0  0  0
    4.0180   -2.0803   -0.4251 H   0  0  0  0  0  0  0  0  0  0  0  0
    4.9664   -0.5513   -2.1289 H   0  0  0  0  0  0  0  0  0  0  0  0
    4.1256    1.7754   -2.2982 H   0  0  0  0  0  0  0  0  0  0  0  0
    2.3345    2.5553   -0.7809 H   0  0  0  0  0  0  0  0  0  0  0  0
   -1.3129   -2.3105    1.1958 H   0  0  0  0  0  0  0  0  0  0  0  0
   -2.8395   -0.0904    1.9671 H   0  0  0  0  0  0  0  0  0  0  0  0
   -2.3686   -1.8806   -1.0005 H   0  0  0  0  0  0  0  0  0  0  0  0
   -3.9769   -1.9414    1.2028 H   0  0  0  0  0  0  0  0  0  0  0  0
   -3.3082    0.3146   -1.4905 H   0  0  0  0  0  0  0  0  0  0  0  0
   -4.5299    0.3016    0.4910 H   0  0  0  0  0  0  0  0  0  0  0  0
   -1.5123    1.6540    0.1716 H   0  0  0  0  0  0  0  0  0  0  0  0
    0.4995    0.9305   -1.6893 H   0  0  0  0  0  0  0  0  0  0  0  0
  1 18  1  6  0  0  0
  1 10  1  0  0  0  0
  1  2  1  0  0  0  0
  2 19  1  0  0  0  0
  3  2  1  0  0  0  0
  3 21  1  0  0  0  0
  4  5  1  0  0  0  0
  4  3  1  0  0  0  0
  5 22  1  0  0  0  0
  6 23  1  0  0  0  0
  6  5  2  0  0  0  0
  7  6  1  0  0  0  0
  8  7  2  0  0  0  0
  8  9  1  0  0  0  0
  9  4  2  0  0  0  0
 10 27  1  1  0  0  0
 10 11  1  0  0  0  0
 12 29  1  6  0  0  0
 12 13  1  0  0  0  0
 12 10  1  0  0  0  0
 13 30  1  0  0  0  0
 14 31  1  6  0  0  0
 14 16  1  0  0  0  0
 14 12  1  0  0  0  0
 14 15  1  0  0  0  0
 15 32  1  0  0  0  0
 16 33  1  1  0  0  0
 16  1  1  0  0  0  0
 17 34  1  0  0  0  0
 17 16  1  0  0  0  0
 20  3  1  0  0  0  0
 24  7  1  0  0  0  0
 25  8  1  0  0  0  0
 26  9  1  0  0  0  0
 28 11  1  0  0  0  0
M  END
