omegacsd_SPIRIL_02.xyz
 OpenBabel11041815263D

 57 60  0  0  1  0  0  0  0  0999 V2000
   -2.0373   -1.2515    0.7766 C   0  0  0  0  0  0  0  0  0  0  0  0
   -2.8714   -1.2488   -0.5113 C   0  0  1  0  0  0  0  0  0  0  0  0
   -2.8412   -2.6463   -1.1263 C   0  0  0  0  0  0  0  0  0  0  0  0
   -1.8470   -3.2985   -1.3968 O   0  0  0  0  0  0  0  0  0  0  0  0
   -4.1289   -3.0213   -1.3328 N   0  0  0  0  0  0  0  0  0  0  0  0
   -5.1084   -2.0529   -0.9262 C   0  0  0  0  0  0  0  0  0  0  0  0
   -4.2990   -1.0735   -0.2246 N   0  0  0  0  0  0  0  0  0  0  0  0
   -4.8979    0.1269    0.1361 C   0  0  0  0  0  0  0  0  0  0  0  0
   -4.1672    1.2395    0.5978 C   0  0  0  0  0  0  0  0  0  0  0  0
   -4.8179    2.4051    0.9885 C   0  0  0  0  0  0  0  0  0  0  0  0
   -6.2054    2.5105    0.9355 C   0  0  0  0  0  0  0  0  0  0  0  0
   -6.9379    1.4198    0.4787 C   0  0  0  0  0  0  0  0  0  0  0  0
   -6.2997    0.2485    0.0816 C   0  0  0  0  0  0  0  0  0  0  0  0
   -2.3463   -0.2589   -1.5667 C   0  0  0  0  0  0  0  0  0  0  0  0
   -0.8288   -0.2605   -1.6593 C   0  0  0  0  0  0  0  0  0  0  0  0
   -0.2491   -0.0066   -0.3412 N   0  0  0  0  0  0  0  0  0  0  0  0
    1.1902    0.1920   -0.4671 C   0  0  0  0  0  0  0  0  0  0  0  0
    1.8379    0.7393    0.8059 C   0  0  0  0  0  0  0  0  0  0  0  0
    3.2751    1.0739    0.5527 C   0  0  0  0  0  0  0  0  0  0  0  0
    4.3257    0.2484    0.7319 C   0  0  0  0  0  0  0  0  0  0  0  0
    5.6915    0.6946    0.3885 C   0  0  0  0  0  0  0  0  0  0  0  0
    6.7972    0.2592    1.1327 C   0  0  0  0  0  0  0  0  0  0  0  0
    8.0869    0.6912    0.8372 C   0  0  0  0  0  0  0  0  0  0  0  0
    8.2717    1.5585   -0.2274 C   0  0  0  0  0  0  0  0  0  0  0  0
    7.2097    1.9956   -1.0041 C   0  0  0  0  0  0  0  0  0  0  0  0
    5.9277    1.5556   -0.6930 C   0  0  0  0  0  0  0  0  0  0  0  0
    9.5157    1.9753   -0.5251 F   0  0  0  0  0  0  0  0  0  0  0  0
    4.1877   -1.1372    1.3004 C   0  0  0  0  0  0  0  0  0  0  0  0
   -0.5417   -1.1565    0.5141 C   0  0  0  0  0  0  0  0  0  0  0  0
   -2.2625   -2.1639    1.3321 H   0  0  0  0  0  0  0  0  0  0  0  0
   -2.3386   -0.4148    1.4020 H   0  0  0  0  0  0  0  0  0  0  0  0
   -4.3555   -3.9071   -1.7525 H   0  0  0  0  0  0  0  0  0  0  0  0
   -5.6294   -1.6125   -1.7878 H   0  0  0  0  0  0  0  0  0  0  0  0
   -5.8553   -2.4962   -0.2619 H   0  0  0  0  0  0  0  0  0  0  0  0
   -3.0911    1.2115    0.6518 H   0  0  0  0  0  0  0  0  0  0  0  0
   -4.2222    3.2387    1.3357 H   0  0  0  0  0  0  0  0  0  0  0  0
   -6.7020    3.4198    1.2417 H   0  0  0  0  0  0  0  0  0  0  0  0
   -8.0170    1.4713    0.4245 H   0  0  0  0  0  0  0  0  0  0  0  0
   -6.9076   -0.5760   -0.2600 H   0  0  0  0  0  0  0  0  0  0  0  0
   -2.6777    0.7455   -1.3123 H   0  0  0  0  0  0  0  0  0  0  0  0
   -2.7846   -0.5100   -2.5363 H   0  0  0  0  0  0  0  0  0  0  0  0
   -0.4687   -1.2144   -2.0717 H   0  0  0  0  0  0  0  0  0  0  0  0
   -0.5131    0.5380   -2.3320 H   0  0  0  0  0  0  0  0  0  0  0  0
    1.3549    0.9124   -1.2712 H   0  0  0  0  0  0  0  0  0  0  0  0
    1.7021   -0.7394   -0.7639 H   0  0  0  0  0  0  0  0  0  0  0  0
    1.7495    0.0220    1.6194 H   0  0  0  0  0  0  0  0  0  0  0  0
    1.2903    1.6332    1.1059 H   0  0  0  0  0  0  0  0  0  0  0  0
    3.4769    2.0668    0.1651 H   0  0  0  0  0  0  0  0  0  0  0  0
    6.6529   -0.4128    1.9670 H   0  0  0  0  0  0  0  0  0  0  0  0
    8.9391    0.3658    1.4160 H   0  0  0  0  0  0  0  0  0  0  0  0
    7.3949    2.6513   -1.8425 H   0  0  0  0  0  0  0  0  0  0  0  0
    5.0984    1.8626   -1.3156 H   0  0  0  0  0  0  0  0  0  0  0  0
    3.1544   -1.4734    1.3019 H   0  0  0  0  0  0  0  0  0  0  0  0
    4.7756   -1.8475    0.7195 H   0  0  0  0  0  0  0  0  0  0  0  0
    4.5521   -1.1803    2.3286 H   0  0  0  0  0  0  0  0  0  0  0  0
   -0.0344   -1.0275    1.4690 H   0  0  0  0  0  0  0  0  0  0  0  0
   -0.1741   -2.0844    0.0535 H   0  0  0  0  0  0  0  0  0  0  0  0
  1 30  1  0  0  0  0
  1 31  1  0  0  0  0
  2 14  1  6  0  0  0
  2  7  1  0  0  0  0
  2  1  1  0  0  0  0
  3  2  1  0  0  0  0
  4  3  2  0  0  0  0
  5  3  1  0  0  0  0
  5  6  1  0  0  0  0
  6 34  1  0  0  0  0
  6  7  1  0  0  0  0
  7  8  1  0  0  0  0
  8  9  1  0  0  0  0
  9 35  1  0  0  0  0
  9 10  2  0  0  0  0
 10 36  1  0  0  0  0
 11 10  1  0  0  0  0
 11 37  1  0  0  0  0
 12 11  2  0  0  0  0
 13  8  2  0  0  0  0
 13 12  1  0  0  0  0
 14 40  1  0  0  0  0
 15 14  1  0  0  0  0
 15 16  1  0  0  0  0
 16 29  1  0  0  0  0
 17 16  1  0  0  0  0
 17 18  1  0  0  0  0
 18 47  1  0  0  0  0
 18 46  1  0  0  0  0
 19 20  2  0  0  0  0
 19 18  1  0  0  0  0
 20 28  1  0  0  0  0
 21 20  1  0  0  0  0
 21 22  2  0  0  0  0
 22 49  1  0  0  0  0
 23 22  1  0  0  0  0
 23 50  1  0  0  0  0
 24 23  2  0  0  0  0
 25 26  2  0  0  0  0
 25 24  1  0  0  0  0
 26 21  1  0  0  0  0
 27 24  1  0  0  0  0
 28 53  1  0  0  0  0
 28 55  1  0  0  0  0
 29  1  1  0  0  0  0
 29 56  1  0  0  0  0
 32  5  1  0  0  0  0
 33  6  1  0  0  0  0
 38 12  1  0  0  0  0
 39 13  1  0  0  0  0
 41 14  1  0  0  0  0
 42 15  1  0  0  0  0
 43 15  1  0  0  0  0
 44 17  1  0  0  0  0
 45 17  1  0  0  0  0
 48 19  1  0  0  0  0
 51 25  1  0  0  0  0
 52 26  1  0  0  0  0
 54 28  1  0  0  0  0
 57 29  1  0  0  0  0
M  END
