omegapdb_2f7p_18.xyz
 OpenBabel11041815263D

 34 35  0  0  1  0  0  0  0  0999 V2000
   -1.1631   -0.9778    0.1048 C   0  0  1  0  0  0  0  0  0  0  0  0
    0.2784   -0.8446    0.0912 N   0  0  0  0  0  0  0  0  0  0  0  0
    0.8526    0.4603    0.4310 C   0  0  0  0  0  0  0  0  0  0  0  0
    2.3301    0.4383    0.1540 C   0  0  0  0  0  0  0  0  0  0  0  0
    2.8017    0.1702   -1.1345 C   0  0  0  0  0  0  0  0  0  0  0  0
    4.1677    0.1458   -1.3967 C   0  0  0  0  0  0  0  0  0  0  0  0
    5.0816    0.3834   -0.3695 C   0  0  0  0  0  0  0  0  0  0  0  0
    4.6216    0.6466    0.9180 C   0  0  0  0  0  0  0  0  0  0  0  0
    3.2512    0.6723    1.1753 C   0  0  0  0  0  0  0  0  0  0  0  0
   -2.0230   -0.5293    1.2961 C   0  0  1  0  0  0  0  0  0  0  0  0
   -1.8379    0.8176    1.7232 O   0  0  0  0  0  0  0  0  0  0  0  0
   -3.4249   -0.6840    0.7045 C   0  0  1  0  0  0  0  0  0  0  0  0
   -4.4319   -0.0574    1.4744 O   0  0  0  0  0  0  0  0  0  0  0  0
   -3.2816   -0.0365   -0.6939 C   0  0  1  0  0  0  0  0  0  0  0  0
   -3.4458    1.3771   -0.5692 O   0  0  0  0  0  0  0  0  0  0  0  0
   -1.8229   -0.2870   -1.1010 C   0  0  2  0  0  0  0  0  0  0  0  0
   -1.6823   -1.2738   -2.6202 S   0  0  0  0  0  0  0  0  0  0  0  0
   -1.3653   -2.0485    0.0009 H   0  0  0  0  0  0  0  0  0  0  0  0
    0.7049   -1.5560    0.6724 H   0  0  0  0  0  0  0  0  0  0  0  0
    0.6740    0.7587    1.4666 H   0  0  0  0  0  0  0  0  0  0  0  0
    0.3729    1.2112   -0.2001 H   0  0  0  0  0  0  0  0  0  0  0  0
    2.0889   -0.0202   -1.9267 H   0  0  0  0  0  0  0  0  0  0  0  0
    4.5210   -0.0568   -2.3988 H   0  0  0  0  0  0  0  0  0  0  0  0
    6.1435    0.3634   -0.5728 H   0  0  0  0  0  0  0  0  0  0  0  0
    5.3251    0.8294    1.7189 H   0  0  0  0  0  0  0  0  0  0  0  0
    2.8915    0.8781    2.1760 H   0  0  0  0  0  0  0  0  0  0  0  0
   -1.8600   -1.1485    2.1771 H   0  0  0  0  0  0  0  0  0  0  0  0
   -2.1058    1.3824    0.9798 H   0  0  0  0  0  0  0  0  0  0  0  0
   -3.6760   -1.7395    0.5964 H   0  0  0  0  0  0  0  0  0  0  0  0
   -3.9555    0.5512    2.0572 H   0  0  0  0  0  0  0  0  0  0  0  0
   -3.9999   -0.4375   -1.4107 H   0  0  0  0  0  0  0  0  0  0  0  0
   -4.2714    1.4878   -0.0752 H   0  0  0  0  0  0  0  0  0  0  0  0
   -1.3700    0.6872   -1.2790 H   0  0  0  0  0  0  0  0  0  0  0  0
   -0.3899   -1.5638   -2.4137 H   0  0  0  0  0  0  0  0  0  0  0  0
  1 18  1  6  0  0  0
  1 10  1  0  0  0  0
  2  1  1  0  0  0  0
  2  3  1  0  0  0  0
  2 19  1  0  0  0  0
  3 20  1  0  0  0  0
  4  3  1  0  0  0  0
  4  9  2  0  0  0  0
  5  4  1  0  0  0  0
  6  5  2  0  0  0  0
  6  7  1  0  0  0  0
  7  8  2  0  0  0  0
  8  9  1  0  0  0  0
  8 25  1  0  0  0  0
  9 26  1  0  0  0  0
 10 11  1  0  0  0  0
 10 27  1  1  0  0  0
 12 29  1  6  0  0  0
 12 10  1  0  0  0  0
 12 13  1  0  0  0  0
 13 30  1  0  0  0  0
 14 31  1  6  0  0  0
 14 15  1  0  0  0  0
 14 12  1  0  0  0  0
 15 32  1  0  0  0  0
 16 33  1  6  0  0  0
 16 14  1  0  0  0  0
 16  1  1  0  0  0  0
 17 34  1  0  0  0  0
 17 16  1  0  0  0  0
 21  3  1  0  0  0  0
 22  5  1  0  0  0  0
 23  6  1  0  0  0  0
 24  7  1  0  0  0  0
 28 11  1  0  0  0  0
M  END
