omegapdb_1v2k_11.xyz
 OpenBabel11041815263D

 61 65  0  0  0  0  0  0  0  0999 V2000
    9.4501    1.3721   -0.7658 N   0  0  0  0  0  0  0  0  0  0  0  0
    8.9366    0.5302   -1.6766 C   0  0  0  0  0  0  0  0  0  0  0  0
    7.6398    0.0404   -1.6527 C   0  0  0  0  0  0  0  0  0  0  0  0
    6.7661    0.4266   -0.6239 C   0  0  0  0  0  0  0  0  0  0  0  0
    7.2949    1.3080    0.3285 C   0  0  0  0  0  0  0  0  0  0  0  0
    8.6153    1.7345    0.2133 C   0  0  0  0  0  0  0  0  0  0  0  0
    5.4680   -0.0860   -0.5560 N   0  0  0  0  0  0  0  0  0  0  0  0
    4.6743    0.3055    0.5959 C   0  0  0  0  0  0  0  0  0  0  0  0
    3.4449   -0.5810    0.7238 C   0  0  0  0  0  0  0  0  0  0  0  0
    2.5985   -0.5438   -0.5505 C   0  0  0  0  0  0  0  0  0  0  0  0
    3.4805   -0.9436   -1.7257 C   0  0  0  0  0  0  0  0  0  0  0  0
    4.6984   -0.0402   -1.8000 C   0  0  0  0  0  0  0  0  0  0  0  0
    1.4308   -1.5008   -0.4063 C   0  0  0  0  0  0  0  0  0  0  0  0
    1.5322   -2.6820   -0.7287 O   0  0  0  0  0  0  0  0  0  0  0  0
    0.2787   -1.0041    0.1346 N   0  0  0  0  0  0  0  0  0  0  0  0
   -0.8722   -1.8956    0.2461 C   0  0  0  0  0  0  0  0  0  0  0  0
   -2.1355   -1.0857    0.0358 C   0  0  0  0  0  0  0  0  0  0  0  0
   -2.2736   -0.0108    1.0407 N   0  0  0  0  0  0  0  0  0  0  0  0
   -0.9896    0.4268    1.6272 C   0  0  0  0  0  0  0  0  0  0  0  0
    0.0780    0.3771    0.5517 C   0  0  0  0  0  0  0  0  0  0  0  0
   -3.4081   -0.3367    2.2243 S   0  0  0  0  0  0  0  0  0  0  0  0
   -3.3486    0.7857    3.1389 O   0  0  0  0  0  0  0  0  0  0  0  0
   -3.2738   -1.6939    2.7298 O   0  0  0  0  0  0  0  0  0  0  0  0
   -4.8947   -0.2698    1.2639 C   0  0  0  0  0  0  0  0  0  0  0  0
   -5.2428    0.9227    0.6662 C   0  0  0  0  0  0  0  0  0  0  0  0
   -6.4353    1.0009   -0.0814 C   0  0  0  0  0  0  0  0  0  0  0  0
   -7.2618   -0.1622   -0.2027 C   0  0  0  0  0  0  0  0  0  0  0  0
   -6.8650   -1.3614    0.4342 C   0  0  0  0  0  0  0  0  0  0  0  0
   -5.6965   -1.4231    1.1608 C   0  0  0  0  0  0  0  0  0  0  0  0
   -8.4560   -0.0859   -0.9533 C   0  0  0  0  0  0  0  0  0  0  0  0
   -8.8092    1.1001   -1.5549 C   0  0  0  0  0  0  0  0  0  0  0  0
   -8.0056    2.2537   -1.4416 C   0  0  0  0  0  0  0  0  0  0  0  0
   -6.8390    2.1999   -0.7159 C   0  0  0  0  0  0  0  0  0  0  0  0
  -10.2723    1.1976   -2.4761 Cl  0  0  0  0  0  0  0  0  0  0  0  0
    9.6071    0.2209   -2.4692 H   0  0  0  0  0  0  0  0  0  0  0  0
    7.3308   -0.6627   -2.4118 H   0  0  0  0  0  0  0  0  0  0  0  0
    6.7015    1.6814    1.1482 H   0  0  0  0  0  0  0  0  0  0  0  0
    9.0164    2.4178    0.9525 H   0  0  0  0  0  0  0  0  0  0  0  0
    4.3665    1.3625    0.5290 H   0  0  0  0  0  0  0  0  0  0  0  0
    5.2871    0.1945    1.4889 H   0  0  0  0  0  0  0  0  0  0  0  0
    3.7598   -1.6121    0.8949 H   0  0  0  0  0  0  0  0  0  0  0  0
    2.8659   -0.2647    1.5943 H   0  0  0  0  0  0  0  0  0  0  0  0
    2.2444    0.4771   -0.7140 H   0  0  0  0  0  0  0  0  0  0  0  0
    3.7887   -1.9803   -1.5998 H   0  0  0  0  0  0  0  0  0  0  0  0
    2.9220   -0.8765   -2.6605 H   0  0  0  0  0  0  0  0  0  0  0  0
    4.3849    0.9966   -2.0028 H   0  0  0  0  0  0  0  0  0  0  0  0
    5.3359   -0.3493   -2.6225 H   0  0  0  0  0  0  0  0  0  0  0  0
   -0.8988   -2.3907    1.2191 H   0  0  0  0  0  0  0  0  0  0  0  0
   -0.7691   -2.6636   -0.5171 H   0  0  0  0  0  0  0  0  0  0  0  0
   -3.0047   -1.7397    0.0865 H   0  0  0  0  0  0  0  0  0  0  0  0
   -2.1239   -0.6279   -0.9544 H   0  0  0  0  0  0  0  0  0  0  0  0
   -0.6820   -0.2109    2.4619 H   0  0  0  0  0  0  0  0  0  0  0  0
   -1.1079    1.4413    1.9978 H   0  0  0  0  0  0  0  0  0  0  0  0
   -0.2187    1.0147   -0.2874 H   0  0  0  0  0  0  0  0  0  0  0  0
    0.9971    0.7784    0.9712 H   0  0  0  0  0  0  0  0  0  0  0  0
   -4.6074    1.7927    0.7726 H   0  0  0  0  0  0  0  0  0  0  0  0
   -7.4953   -2.2370    0.3438 H   0  0  0  0  0  0  0  0  0  0  0  0
   -5.3833   -2.3288    1.6604 H   0  0  0  0  0  0  0  0  0  0  0  0
   -9.0895   -0.9570   -1.0527 H   0  0  0  0  0  0  0  0  0  0  0  0
   -8.3184    3.1669   -1.9271 H   0  0  0  0  0  0  0  0  0  0  0  0
   -6.2169    3.0808   -0.6220 H   0  0  0  0  0  0  0  0  0  0  0  0
  1  6  2  0  0  0  0
  2  3  2  0  0  0  0
  2  1  1  0  0  0  0
  3  4  1  0  0  0  0
  4  7  1  0  0  0  0
  4  5  2  0  0  0  0
  5 37  1  0  0  0  0
  6  5  1  0  0  0  0
  6 38  1  0  0  0  0
  7  8  1  0  0  0  0
  8  9  1  0  0  0  0
  8 40  1  0  0  0  0
  9 41  1  0  0  0  0
  9 42  1  0  0  0  0
 10 13  1  0  0  0  0
 10  9  1  0  0  0  0
 11 44  1  0  0  0  0
 11 10  1  0  0  0  0
 12 11  1  0  0  0  0
 12  7  1  0  0  0  0
 13 15  1  0  0  0  0
 14 13  2  0  0  0  0
 15 16  1  0  0  0  0
 15 20  1  0  0  0  0
 16 48  1  0  0  0  0
 17 50  1  0  0  0  0
 17 16  1  0  0  0  0
 17 18  1  0  0  0  0
 18 19  1  0  0  0  0
 18 21  1  0  0  0  0
 19 53  1  0  0  0  0
 19 52  1  0  0  0  0
 20 55  1  0  0  0  0
 20 19  1  0  0  0  0
 21 23  2  0  0  0  0
 21 22  2  0  0  0  0
 24 21  1  0  0  0  0
 25 56  1  0  0  0  0
 25 24  2  0  0  0  0
 26 25  1  0  0  0  0
 27 26  1  0  0  0  0
 27 28  1  0  0  0  0
 28 29  2  0  0  0  0
 29 24  1  0  0  0  0
 29 58  1  0  0  0  0
 30 27  2  0  0  0  0
 31 32  2  0  0  0  0
 31 30  1  0  0  0  0
 32 33  1  0  0  0  0
 33 61  1  0  0  0  0
 33 26  2  0  0  0  0
 34 31  1  0  0  0  0
 35  2  1  0  0  0  0
 36  3  1  0  0  0  0
 39  8  1  0  0  0  0
 43 10  1  0  0  0  0
 45 11  1  0  0  0  0
 46 12  1  0  0  0  0
 47 12  1  0  0  0  0
 49 16  1  0  0  0  0
 51 17  1  0  0  0  0
 54 20  1  0  0  0  0
 57 28  1  0  0  0  0
 59 30  1  0  0  0  0
 60 32  1  0  0  0  0
M  END
