omegacsd_CEJTIU_05.xyz
 OpenBabel11041815263D

 41 42  0  0  0  0  0  0  0  0999 V2000
   -6.3717   -0.7445   -0.3928 C   0  0  0  0  0  0  0  0  0  0  0  0
   -5.7291    0.4737    0.0547 N   0  0  0  0  0  0  0  0  0  0  0  0
   -6.3772    1.0134    1.2409 C   0  0  0  0  0  0  0  0  0  0  0  0
   -4.3247    0.4464    0.0921 C   0  0  0  0  0  0  0  0  0  0  0  0
   -3.5802   -0.6597   -0.3419 C   0  0  0  0  0  0  0  0  0  0  0  0
   -2.1858   -0.6542   -0.3563 C   0  0  0  0  0  0  0  0  0  0  0  0
   -1.4895    0.4691    0.0883 C   0  0  0  0  0  0  0  0  0  0  0  0
   -2.2184    1.5785    0.5325 C   0  0  0  0  0  0  0  0  0  0  0  0
   -3.6033    1.5700    0.5326 C   0  0  0  0  0  0  0  0  0  0  0  0
   -0.0901    0.5715    0.1187 N   0  0  0  0  0  0  0  0  0  0  0  0
    0.8020   -0.3776   -0.2402 C   0  0  0  0  0  0  0  0  0  0  0  0
    0.5812   -1.5018   -0.6562 O   0  0  0  0  0  0  0  0  0  0  0  0
    2.1558    0.0401   -0.0949 N   0  0  0  0  0  0  0  0  0  0  0  0
    2.6593    1.2299    0.3442 C   0  0  0  0  0  0  0  0  0  0  0  0
    1.9712    2.1809    0.7048 O   0  0  0  0  0  0  0  0  0  0  0  0
    4.1794    1.3307    0.3680 C   0  0  0  0  0  0  0  0  0  0  0  0
    4.9260    0.1130   -0.0863 C   0  0  0  0  0  0  0  0  0  0  0  0
    5.2666   -0.8930    0.8235 C   0  0  0  0  0  0  0  0  0  0  0  0
    5.9118   -2.0504    0.3947 C   0  0  0  0  0  0  0  0  0  0  0  0
    6.2223   -2.2172   -0.9536 C   0  0  0  0  0  0  0  0  0  0  0  0
    5.8879   -1.2211   -1.8691 C   0  0  0  0  0  0  0  0  0  0  0  0
    5.2428   -0.0649   -1.4367 C   0  0  0  0  0  0  0  0  0  0  0  0
   -6.0194   -1.0116   -1.3865 H   0  0  0  0  0  0  0  0  0  0  0  0
   -6.1980   -1.5956    0.2810 H   0  0  0  0  0  0  0  0  0  0  0  0
   -7.4433   -0.5666   -0.4500 H   0  0  0  0  0  0  0  0  0  0  0  0
   -6.0048    2.0055    1.4721 H   0  0  0  0  0  0  0  0  0  0  0  0
   -7.4451    1.0969    1.0488 H   0  0  0  0  0  0  0  0  0  0  0  0
   -6.2281    0.3734    2.1207 H   0  0  0  0  0  0  0  0  0  0  0  0
   -4.0785   -1.5554   -0.6784 H   0  0  0  0  0  0  0  0  0  0  0  0
   -1.6426   -1.5194   -0.6977 H   0  0  0  0  0  0  0  0  0  0  0  0
   -1.6912    2.4613    0.8731 H   0  0  0  0  0  0  0  0  0  0  0  0
   -4.1241    2.4599    0.8534 H   0  0  0  0  0  0  0  0  0  0  0  0
    0.3286    1.4427    0.4402 H   0  0  0  0  0  0  0  0  0  0  0  0
    2.8118   -0.6786   -0.3672 H   0  0  0  0  0  0  0  0  0  0  0  0
    4.4267    2.1963   -0.2474 H   0  0  0  0  0  0  0  0  0  0  0  0
    4.4415    1.5934    1.3934 H   0  0  0  0  0  0  0  0  0  0  0  0
    5.0255   -0.7652    1.8716 H   0  0  0  0  0  0  0  0  0  0  0  0
    6.1708   -2.8186    1.1102 H   0  0  0  0  0  0  0  0  0  0  0  0
    6.7222   -3.1154   -1.2880 H   0  0  0  0  0  0  0  0  0  0  0  0
    6.1282   -1.3437   -2.9161 H   0  0  0  0  0  0  0  0  0  0  0  0
    4.9834    0.7080   -2.1498 H   0  0  0  0  0  0  0  0  0  0  0  0
  1  2  1  0  0  0  0
  1 24  1  0  0  0  0
  2  4  1  0  0  0  0
  2  3  1  0  0  0  0
  3 26  1  0  0  0  0
  3 28  1  0  0  0  0
  4  9  2  0  0  0  0
  5  4  1  0  0  0  0
  6  5  2  0  0  0  0
  6  7  1  0  0  0  0
  7 10  1  0  0  0  0
  7  8  2  0  0  0  0
  8  9  1  0  0  0  0
  8 31  1  0  0  0  0
  9 32  1  0  0  0  0
 10 33  1  0  0  0  0
 11 13  1  0  0  0  0
 11 10  1  0  0  0  0
 12 11  2  0  0  0  0
 13 14  1  0  0  0  0
 14 16  1  0  0  0  0
 14 15  2  0  0  0  0
 16 36  1  0  0  0  0
 17 16  1  0  0  0  0
 17 18  2  0  0  0  0
 18 37  1  0  0  0  0
 19 18  1  0  0  0  0
 19 38  1  0  0  0  0
 20 19  2  0  0  0  0
 21 22  2  0  0  0  0
 21 20  1  0  0  0  0
 22 17  1  0  0  0  0
 23  1  1  0  0  0  0
 25  1  1  0  0  0  0
 27  3  1  0  0  0  0
 29  5  1  0  0  0  0
 30  6  1  0  0  0  0
 34 13  1  0  0  0  0
 35 16  1  0  0  0  0
 39 20  1  0  0  0  0
 40 21  1  0  0  0  0
 41 22  1  0  0  0  0
M  END
