omegacsd_GALSEM_09.xyz
 OpenBabel11041815263D

 39 40  0  0  0  0  0  0  0  0999 V2000
    1.3429    2.2312    1.0960 S   0  0  0  0  0  0  0  0  0  0  0  0
    2.3242    3.2801    1.0387 O   0  0  0  0  0  0  0  0  0  0  0  0
    0.0006    2.4879    1.6028 O   0  0  0  0  0  0  0  0  0  0  0  0
    1.8703    0.9976    2.1086 N   0  0  0  0  0  0  0  0  0  0  0  0
    3.1275    0.3985    2.0250 C   0  0  0  0  0  0  0  0  0  0  0  0
    3.8826    0.6272    1.1039 O   0  0  0  0  0  0  0  0  0  0  0  0
    3.4222   -0.5480    3.1659 C   0  0  0  0  0  0  0  0  0  0  0  0
    4.7235   -1.3003    2.9513 C   0  0  0  0  0  0  0  0  0  0  0  0
    1.2466    1.4273   -0.4604 C   0  0  0  0  0  0  0  0  0  0  0  0
    0.1818    0.5623   -0.7871 C   0  0  0  0  0  0  0  0  0  0  0  0
   -0.8641    0.3367    0.0708 N   0  0  0  0  0  0  0  0  0  0  0  0
   -2.0926   -0.2506   -0.2921 C   0  0  0  0  0  0  0  0  0  0  0  0
   -2.6990   -0.0046   -1.5255 C   0  0  0  0  0  0  0  0  0  0  0  0
   -3.9216   -0.6001   -1.8215 C   0  0  0  0  0  0  0  0  0  0  0  0
   -4.5730   -1.4074   -0.8922 C   0  0  0  0  0  0  0  0  0  0  0  0
   -3.9779   -1.6257    0.3473 C   0  0  0  0  0  0  0  0  0  0  0  0
   -2.7413   -1.0623    0.6434 C   0  0  0  0  0  0  0  0  0  0  0  0
   -4.5701   -0.2929   -3.1387 C   0  0  0  0  0  0  0  0  0  0  0  0
   -5.2473    0.8661   -3.0921 F   0  0  0  0  0  0  0  0  0  0  0  0
   -5.4400   -1.2443   -3.5028 F   0  0  0  0  0  0  0  0  0  0  0  0
   -3.6636   -0.1774   -4.1212 F   0  0  0  0  0  0  0  0  0  0  0  0
    0.3128   -0.0945   -2.0206 C   0  0  0  0  0  0  0  0  0  0  0  0
    1.4034    0.1689   -2.8322 C   0  0  0  0  0  0  0  0  0  0  0  0
    2.3922    1.0281   -2.5371 N   0  0  0  0  0  0  0  0  0  0  0  0
    2.3024    1.6271   -1.3505 C   0  0  0  0  0  0  0  0  0  0  0  0
    1.2733    0.8444    2.9086 H   0  0  0  0  0  0  0  0  0  0  0  0
    2.5791   -1.2334    3.2719 H   0  0  0  0  0  0  0  0  0  0  0  0
    3.4578    0.0439    4.0834 H   0  0  0  0  0  0  0  0  0  0  0  0
    5.5523   -0.6060    2.8445 H   0  0  0  0  0  0  0  0  0  0  0  0
    4.9241   -1.9590    3.7930 H   0  0  0  0  0  0  0  0  0  0  0  0
    4.6769   -1.8979    2.0445 H   0  0  0  0  0  0  0  0  0  0  0  0
   -0.8858    0.9441    0.8825 H   0  0  0  0  0  0  0  0  0  0  0  0
   -2.2282    0.6526   -2.2422 H   0  0  0  0  0  0  0  0  0  0  0  0
   -5.5214   -1.8605   -1.1382 H   0  0  0  0  0  0  0  0  0  0  0  0
   -4.4704   -2.2512    1.0783 H   0  0  0  0  0  0  0  0  0  0  0  0
   -2.2611   -1.2517    1.5939 H   0  0  0  0  0  0  0  0  0  0  0  0
   -0.4279   -0.8115   -2.3407 H   0  0  0  0  0  0  0  0  0  0  0  0
    1.4880   -0.3423   -3.7832 H   0  0  0  0  0  0  0  0  0  0  0  0
    3.1005    2.2981   -1.0667 H   0  0  0  0  0  0  0  0  0  0  0  0
  1  3  2  0  0  0  0
  1  4  1  0  0  0  0
  2  1  2  0  0  0  0
  4 26  1  0  0  0  0
  5  4  1  0  0  0  0
  5  7  1  0  0  0  0
  6  5  2  0  0  0  0
  7 27  1  0  0  0  0
  7 28  1  0  0  0  0
  8  7  1  0  0  0  0
  8 30  1  0  0  0  0
  9  1  1  0  0  0  0
 10  9  1  0  0  0  0
 10 11  1  0  0  0  0
 11 32  1  0  0  0  0
 12 11  1  0  0  0  0
 12 17  2  0  0  0  0
 13 12  1  0  0  0  0
 14 13  2  0  0  0  0
 14 15  1  0  0  0  0
 15 16  2  0  0  0  0
 16 17  1  0  0  0  0
 16 35  1  0  0  0  0
 17 36  1  0  0  0  0
 18 19  1  0  0  0  0
 18 14  1  0  0  0  0
 20 18  1  0  0  0  0
 21 18  1  0  0  0  0
 22 10  2  0  0  0  0
 23 24  2  0  0  0  0
 23 22  1  0  0  0  0
 24 25  1  0  0  0  0
 25 39  1  0  0  0  0
 25  9  2  0  0  0  0
 29  8  1  0  0  0  0
 31  8  1  0  0  0  0
 33 13  1  0  0  0  0
 34 15  1  0  0  0  0
 37 22  1  0  0  0  0
 38 23  1  0  0  0  0
M  END
