omegacsd_FABSOQ10_03.xyz
 OpenBabel11041815263D

 45 47  0  0  1  0  0  0  0  0999 V2000
   -0.9302   -1.2309    0.4434 S   0  0  0  0  0  0  0  0  0  0  0  0
   -1.2321   -1.1628   -1.2480 C   0  0  0  0  0  0  0  0  0  0  0  0
   -0.0487   -1.1708   -1.9598 C   0  0  0  0  0  0  0  0  0  0  0  0
    1.0907   -1.2418   -1.1324 C   0  0  0  0  0  0  0  0  0  0  0  0
    0.7795   -1.2942    0.2136 C   0  0  0  0  0  0  0  0  0  0  0  0
    1.6949   -1.4673    1.3904 C   0  0  1  0  0  0  0  0  0  0  0  0
    1.8135   -2.8434    1.7611 O   0  0  0  0  0  0  0  0  0  0  0  0
    3.0645   -0.9373    1.0656 C   0  0  0  0  0  0  0  0  0  0  0  0
    4.0708   -1.7789    0.5858 C   0  0  0  0  0  0  0  0  0  0  0  0
    5.3078   -1.2621    0.2256 C   0  0  0  0  0  0  0  0  0  0  0  0
    5.5617    0.1079    0.3367 C   0  0  0  0  0  0  0  0  0  0  0  0
    6.8059    0.5146   -0.0423 O   0  0  0  0  0  0  0  0  0  0  0  0
    7.0734    1.9008    0.0692 C   0  0  0  0  0  0  0  0  0  0  0  0
    4.5635    0.9576    0.8207 C   0  0  0  0  0  0  0  0  0  0  0  0
    3.3261    0.4250    1.1806 C   0  0  0  0  0  0  0  0  0  0  0  0
   -2.6332   -1.1325   -1.7847 C   0  0  2  0  0  0  0  0  0  0  0  0
   -2.5521   -0.4905   -3.0560 O   0  0  0  0  0  0  0  0  0  0  0  0
   -3.5722   -0.4329   -0.8379 C   0  0  0  0  0  0  0  0  0  0  0  0
   -3.4994    0.9499   -0.6772 C   0  0  0  0  0  0  0  0  0  0  0  0
   -4.3340    1.6124    0.2200 C   0  0  0  0  0  0  0  0  0  0  0  0
   -5.2529    0.8806    0.9796 C   0  0  0  0  0  0  0  0  0  0  0  0
   -6.1095    1.4237    1.8863 O   0  0  0  0  0  0  0  0  0  0  0  0
   -6.0361    2.8287    2.0601 C   0  0  0  0  0  0  0  0  0  0  0  0
   -5.3316   -0.5062    0.8236 C   0  0  0  0  0  0  0  0  0  0  0  0
   -4.5005   -1.1522   -0.0815 C   0  0  0  0  0  0  0  0  0  0  0  0
   -0.0320   -1.1080   -3.0370 H   0  0  0  0  0  0  0  0  0  0  0  0
    2.1115   -1.2392   -1.4868 H   0  0  0  0  0  0  0  0  0  0  0  0
    1.2915   -0.8995    2.2365 H   0  0  0  0  0  0  0  0  0  0  0  0
    0.9595   -3.2511    1.5818 H   0  0  0  0  0  0  0  0  0  0  0  0
    3.8774   -2.8390    0.5109 H   0  0  0  0  0  0  0  0  0  0  0  0
    6.0969   -1.9031   -0.1424 H   0  0  0  0  0  0  0  0  0  0  0  0
    6.9914    2.2393    1.1035 H   0  0  0  0  0  0  0  0  0  0  0  0
    6.3983    2.4872   -0.5567 H   0  0  0  0  0  0  0  0  0  0  0  0
    8.0931    2.0372   -0.2746 H   0  0  0  0  0  0  0  0  0  0  0  0
    4.7336    2.0179    0.9258 H   0  0  0  0  0  0  0  0  0  0  0  0
    2.5543    1.0883    1.5526 H   0  0  0  0  0  0  0  0  0  0  0  0
   -2.9842   -2.1641   -1.9130 H   0  0  0  0  0  0  0  0  0  0  0  0
   -3.4529   -0.4437   -3.3963 H   0  0  0  0  0  0  0  0  0  0  0  0
   -2.7820    1.5111   -1.2618 H   0  0  0  0  0  0  0  0  0  0  0  0
   -4.2560    2.6839    0.3207 H   0  0  0  0  0  0  0  0  0  0  0  0
   -5.0486    3.1335    2.4098 H   0  0  0  0  0  0  0  0  0  0  0  0
   -6.2709    3.3555    1.1338 H   0  0  0  0  0  0  0  0  0  0  0  0
   -6.7773    3.0748    2.8126 H   0  0  0  0  0  0  0  0  0  0  0  0
   -6.0525   -1.0519    1.4162 H   0  0  0  0  0  0  0  0  0  0  0  0
   -4.5709   -2.2267   -0.2004 H   0  0  0  0  0  0  0  0  0  0  0  0
  2  1  1  0  0  0  0
  3  2  2  0  0  0  0
  3  4  1  0  0  0  0
  4  5  2  0  0  0  0
  5  1  1  0  0  0  0
  5  6  1  0  0  0  0
  6  7  1  0  0  0  0
  6 28  1  1  0  0  0
  8 15  1  0  0  0  0
  8  6  1  0  0  0  0
  9  8  2  0  0  0  0
 10 11  2  0  0  0  0
 10  9  1  0  0  0  0
 11 14  1  0  0  0  0
 12 13  1  0  0  0  0
 12 11  1  0  0  0  0
 13 32  1  0  0  0  0
 14 35  1  0  0  0  0
 14 15  2  0  0  0  0
 15 36  1  0  0  0  0
 16 37  1  6  0  0  0
 16  2  1  0  0  0  0
 16 18  1  0  0  0  0
 17 16  1  0  0  0  0
 18 19  2  0  0  0  0
 18 25  1  0  0  0  0
 19 20  1  0  0  0  0
 20 40  1  0  0  0  0
 20 21  2  0  0  0  0
 21 22  1  0  0  0  0
 22 23  1  0  0  0  0
 23 41  1  0  0  0  0
 23 43  1  0  0  0  0
 24 21  1  0  0  0  0
 24 44  1  0  0  0  0
 25 24  2  0  0  0  0
 26  3  1  0  0  0  0
 27  4  1  0  0  0  0
 29  7  1  0  0  0  0
 30  9  1  0  0  0  0
 31 10  1  0  0  0  0
 33 13  1  0  0  0  0
 34 13  1  0  0  0  0
 38 17  1  0  0  0  0
 39 19  1  0  0  0  0
 42 23  1  0  0  0  0
 45 25  1  0  0  0  0
M  END
