omegapdb_1v2k_04.xyz
 OpenBabel11041815263D

 61 65  0  0  0  0  0  0  0  0999 V2000
    8.3312    1.0510   -2.4211 N   0  0  0  0  0  0  0  0  0  0  0  0
    8.0514    0.7880   -1.1371 C   0  0  0  0  0  0  0  0  0  0  0  0
    6.7817    0.5402   -0.6343 C   0  0  0  0  0  0  0  0  0  0  0  0
    5.6751    0.5495   -1.5032 C   0  0  0  0  0  0  0  0  0  0  0  0
    5.9615    0.8248   -2.8531 C   0  0  0  0  0  0  0  0  0  0  0  0
    7.2720    1.0632   -3.2423 C   0  0  0  0  0  0  0  0  0  0  0  0
    4.4016    0.3023   -1.0673 N   0  0  0  0  0  0  0  0  0  0  0  0
    4.1511   -0.2225    0.2631 C   0  0  0  0  0  0  0  0  0  0  0  0
    2.8680   -1.0403    0.2398 C   0  0  0  0  0  0  0  0  0  0  0  0
    1.6529   -0.1470   -0.0907 C   0  0  0  0  0  0  0  0  0  0  0  0
    2.0822    1.0159   -0.9878 C   0  0  0  0  0  0  0  0  0  0  0  0
    3.2473    0.6332   -1.8871 C   0  0  0  0  0  0  0  0  0  0  0  0
    1.0385    0.3819    1.2009 C   0  0  0  0  0  0  0  0  0  0  0  0
    1.2116    1.5390    1.5736 O   0  0  0  0  0  0  0  0  0  0  0  0
    0.3412   -0.5184    1.9654 N   0  0  0  0  0  0  0  0  0  0  0  0
   -0.3384   -0.0515    3.1621 C   0  0  0  0  0  0  0  0  0  0  0  0
   -1.8390   -0.0343    2.9202 C   0  0  0  0  0  0  0  0  0  0  0  0
   -2.2591   -1.3817    2.5186 N   0  0  0  0  0  0  0  0  0  0  0  0
   -1.5868   -1.8517    1.3070 C   0  0  0  0  0  0  0  0  0  0  0  0
   -0.0855   -1.8425    1.5597 C   0  0  0  0  0  0  0  0  0  0  0  0
   -3.9026   -1.6687    2.5699 S   0  0  0  0  0  0  0  0  0  0  0  0
   -4.3663   -1.1615    3.8427 O   0  0  0  0  0  0  0  0  0  0  0  0
   -4.0858   -3.0483    2.1732 O   0  0  0  0  0  0  0  0  0  0  0  0
   -4.5588   -0.6330    1.2911 C   0  0  0  0  0  0  0  0  0  0  0  0
   -4.6745   -1.1408    0.0133 C   0  0  0  0  0  0  0  0  0  0  0  0
   -5.1136   -0.3023   -1.0336 C   0  0  0  0  0  0  0  0  0  0  0  0
   -5.4214    1.0664   -0.7506 C   0  0  0  0  0  0  0  0  0  0  0  0
   -5.2956    1.5417    0.5765 C   0  0  0  0  0  0  0  0  0  0  0  0
   -4.8687    0.7116    1.5884 C   0  0  0  0  0  0  0  0  0  0  0  0
   -5.8555    1.9088   -1.7976 C   0  0  0  0  0  0  0  0  0  0  0  0
   -5.9775    1.4052   -3.0726 C   0  0  0  0  0  0  0  0  0  0  0  0
   -5.6819    0.0576   -3.3646 C   0  0  0  0  0  0  0  0  0  0  0  0
   -5.2584   -0.7785   -2.3579 C   0  0  0  0  0  0  0  0  0  0  0  0
   -6.5074    2.4351   -4.3597 Cl  0  0  0  0  0  0  0  0  0  0  0  0
    8.8960    0.7838   -0.4581 H   0  0  0  0  0  0  0  0  0  0  0  0
    6.6642    0.3735    0.4257 H   0  0  0  0  0  0  0  0  0  0  0  0
    5.1855    0.8272   -3.6035 H   0  0  0  0  0  0  0  0  0  0  0  0
    7.4820    1.2688   -4.2854 H   0  0  0  0  0  0  0  0  0  0  0  0
    4.9825   -0.8700    0.5401 H   0  0  0  0  0  0  0  0  0  0  0  0
    4.0813    0.5718    1.0168 H   0  0  0  0  0  0  0  0  0  0  0  0
    2.7353   -1.5362    1.2019 H   0  0  0  0  0  0  0  0  0  0  0  0
    2.9754   -1.8189   -0.5176 H   0  0  0  0  0  0  0  0  0  0  0  0
    0.9108   -0.7438   -0.6211 H   0  0  0  0  0  0  0  0  0  0  0  0
    1.2431    1.3564   -1.5942 H   0  0  0  0  0  0  0  0  0  0  0  0
    2.3800    1.8514   -0.3564 H   0  0  0  0  0  0  0  0  0  0  0  0
    2.9732   -0.1938   -2.5553 H   0  0  0  0  0  0  0  0  0  0  0  0
    3.5045    1.4847   -2.5166 H   0  0  0  0  0  0  0  0  0  0  0  0
    0.0262    0.9461    3.3878 H   0  0  0  0  0  0  0  0  0  0  0  0
   -0.1095   -0.7269    3.9886 H   0  0  0  0  0  0  0  0  0  0  0  0
   -2.0667    0.7000    2.1364 H   0  0  0  0  0  0  0  0  0  0  0  0
   -2.3715    0.2300    3.8306 H   0  0  0  0  0  0  0  0  0  0  0  0
   -1.8148   -1.2002    0.4511 H   0  0  0  0  0  0  0  0  0  0  0  0
   -1.9320   -2.8610    1.0946 H   0  0  0  0  0  0  0  0  0  0  0  0
    0.1422   -2.5451    2.3653 H   0  0  0  0  0  0  0  0  0  0  0  0
    0.4449   -2.1665    0.6706 H   0  0  0  0  0  0  0  0  0  0  0  0
   -4.4592   -2.1849   -0.1748 H   0  0  0  0  0  0  0  0  0  0  0  0
   -5.5469    2.5730    0.7901 H   0  0  0  0  0  0  0  0  0  0  0  0
   -4.7986    1.0604    2.6089 H   0  0  0  0  0  0  0  0  0  0  0  0
   -6.0919    2.9450   -1.5965 H   0  0  0  0  0  0  0  0  0  0  0  0
   -5.7938   -0.3021   -4.3773 H   0  0  0  0  0  0  0  0  0  0  0  0
   -5.0325   -1.8152   -2.5731 H   0  0  0  0  0  0  0  0  0  0  0  0
  1  2  2  0  0  0  0
  2  3  1  0  0  0  0
  2 35  1  0  0  0  0
  3 36  1  0  0  0  0
  4  7  1  0  0  0  0
  4  3  2  0  0  0  0
  5  4  1  0  0  0  0
  6  5  2  0  0  0  0
  6  1  1  0  0  0  0
  7  8  1  0  0  0  0
  8 39  1  0  0  0  0
  8 40  1  0  0  0  0
  9  8  1  0  0  0  0
  9 41  1  0  0  0  0
 10  9  1  0  0  0  0
 10 13  1  0  0  0  0
 11 45  1  0  0  0  0
 11 10  1  0  0  0  0
 12  7  1  0  0  0  0
 12 11  1  0  0  0  0
 13 14  2  0  0  0  0
 13 15  1  0  0  0  0
 15 16  1  0  0  0  0
 16 48  1  0  0  0  0
 16 49  1  0  0  0  0
 17 16  1  0  0  0  0
 17 51  1  0  0  0  0
 18 21  1  0  0  0  0
 18 17  1  0  0  0  0
 19 20  1  0  0  0  0
 19 18  1  0  0  0  0
 20 15  1  0  0  0  0
 20 54  1  0  0  0  0
 21 22  2  0  0  0  0
 23 21  2  0  0  0  0
 24 29  1  0  0  0  0
 24 21  1  0  0  0  0
 25 24  2  0  0  0  0
 26 27  1  0  0  0  0
 26 25  1  0  0  0  0
 27 28  1  0  0  0  0
 28 57  1  0  0  0  0
 28 29  2  0  0  0  0
 29 58  1  0  0  0  0
 30 59  1  0  0  0  0
 30 27  2  0  0  0  0
 31 30  1  0  0  0  0
 32 31  2  0  0  0  0
 32 33  1  0  0  0  0
 33 26  2  0  0  0  0
 34 31  1  0  0  0  0
 37  5  1  0  0  0  0
 38  6  1  0  0  0  0
 42  9  1  0  0  0  0
 43 10  1  0  0  0  0
 44 11  1  0  0  0  0
 46 12  1  0  0  0  0
 47 12  1  0  0  0  0
 50 17  1  0  0  0  0
 52 19  1  0  0  0  0
 53 19  1  0  0  0  0
 55 20  1  0  0  0  0
 56 25  1  0  0  0  0
 60 32  1  0  0  0  0
 61 33  1  0  0  0  0
M  END
