omegapdb_1gs5_10.xyz
 OpenBabel11041815263D

 24 23  0  0  1  0  0  0  0  0999 V2000
   -0.3040   -0.2938   -0.2752 C   0  0  2  0  0  0  0  0  0  0  0  0
   -0.5948   -1.4331    0.6711 C   0  0  0  0  0  0  0  0  0  0  0  0
   -1.4884   -1.4450    1.4846 O   0  0  0  0  0  0  0  0  0  0  0  0
    0.2757   -2.4504    0.5000 O   0  0  0  0  0  0  0  0  0  0  0  0
    0.8914    0.5563    0.1859 C   0  0  0  0  0  0  0  0  0  0  0  0
    2.2149   -0.1904    0.2496 C   0  0  0  0  0  0  0  0  0  0  0  0
    2.3974   -0.9559    1.5430 C   0  0  0  0  0  0  0  0  0  0  0  0
    1.7599   -0.7628    2.5464 O   0  0  0  0  0  0  0  0  0  0  0  0
    3.3878   -1.8837    1.5344 O   0  0  0  0  0  0  0  0  0  0  0  0
   -1.4970    0.5083   -0.3624 N   0  0  0  0  0  0  0  0  0  0  0  0
   -1.7107    1.3309   -1.4251 C   0  0  0  0  0  0  0  0  0  0  0  0
   -0.8937    1.4390   -2.3329 O   0  0  0  0  0  0  0  0  0  0  0  0
   -3.0171    2.0855   -1.3857 C   0  0  0  0  0  0  0  0  0  0  0  0
   -0.0764   -0.7016   -1.2614 H   0  0  0  0  0  0  0  0  0  0  0  0
    0.0853   -3.0866    1.2077 H   0  0  0  0  0  0  0  0  0  0  0  0
    0.6664    0.9763    1.1656 H   0  0  0  0  0  0  0  0  0  0  0  0
    0.9619    1.3691   -0.5343 H   0  0  0  0  0  0  0  0  0  0  0  0
    2.3249   -0.8679   -0.5995 H   0  0  0  0  0  0  0  0  0  0  0  0
    3.0411    0.5223    0.1938 H   0  0  0  0  0  0  0  0  0  0  0  0
    3.7668   -1.9256    0.6491 H   0  0  0  0  0  0  0  0  0  0  0  0
   -2.1794    0.3977    0.3706 H   0  0  0  0  0  0  0  0  0  0  0  0
   -3.8567    1.3932   -1.3537 H   0  0  0  0  0  0  0  0  0  0  0  0
   -3.0653    2.7147   -0.4985 H   0  0  0  0  0  0  0  0  0  0  0  0
   -3.0900    2.7038   -2.2730 H   0  0  0  0  0  0  0  0  0  0  0  0
  1 14  1  6  0  0  0
  1  5  1  0  0  0  0
  1  2  1  0  0  0  0
  2  3  2  0  0  0  0
  4  2  1  0  0  0  0
  4 15  1  0  0  0  0
  5  6  1  0  0  0  0
  5 16  1  0  0  0  0
  6  7  1  0  0  0  0
  7  8  2  0  0  0  0
  9  7  1  0  0  0  0
 10  1  1  0  0  0  0
 10 21  1  0  0  0  0
 11 13  1  0  0  0  0
 11 10  1  0  0  0  0
 12 11  2  0  0  0  0
 13 22  1  0  0  0  0
 13 23  1  0  0  0  0
 17  5  1  0  0  0  0
 18  6  1  0  0  0  0
 19  6  1  0  0  0  0
 20  9  1  0  0  0  0
 24 13  1  0  0  0  0
M  END
