omegapdb_1xom_22.xyz
 OpenBabel11041815263D

 50 52  0  0  1  0  0  0  0  0999 V2000
    7.1325   -0.6115   -0.4452 O   0  0  0  0  0  0  0  0  0  0  0  0
    6.1308    0.2287   -0.0665 C   0  0  0  0  0  0  0  0  0  0  0  0
    6.2732    0.9345    0.8992 O   0  0  0  0  0  0  0  0  0  0  0  0
    4.8579    0.1312   -0.8848 C   0  0  1  0  0  0  0  0  0  0  0  0
    4.0146   -1.0379   -0.3168 C   0  0  0  0  0  0  0  0  0  0  0  0
    3.1532   -0.5307    0.8327 C   0  0  0  0  0  0  0  0  0  0  0  0
    2.0541    0.4249    0.3054 C   0  0  2  0  0  0  0  0  0  0  0  0
    2.5753    1.1616   -0.9617 C   0  0  0  0  0  0  0  0  0  0  0  0
    4.0648    1.4432   -0.8378 C   0  0  0  0  0  0  0  0  0  0  0  0
    1.7933    1.4303    1.3381 C   0  0  0  0  0  0  0  0  0  0  0  0
    1.5945    2.2495    2.1542 N   0  0  0  0  0  0  0  0  0  0  0  0
    0.7447   -0.2674   -0.0359 C   0  0  0  0  0  0  0  0  0  0  0  0
    0.6482   -1.6408   -0.2474 C   0  0  0  0  0  0  0  0  0  0  0  0
   -0.5598   -2.2239   -0.6397 C   0  0  0  0  0  0  0  0  0  0  0  0
   -1.7013   -1.4417   -0.8185 C   0  0  0  0  0  0  0  0  0  0  0  0
   -2.9205   -1.9137   -1.1764 O   0  0  0  0  0  0  0  0  0  0  0  0
   -3.0102   -3.3135   -1.3846 C   0  0  0  0  0  0  0  0  0  0  0  0
   -1.6101   -0.0521   -0.6068 C   0  0  0  0  0  0  0  0  0  0  0  0
   -0.4008    0.5132   -0.2293 C   0  0  0  0  0  0  0  0  0  0  0  0
   -2.7176    0.7263   -0.8058 O   0  0  0  0  0  0  0  0  0  0  0  0
   -3.3026    1.1829    0.4217 C   0  0  0  0  0  0  0  0  0  0  0  0
   -3.9225    0.0862    1.2777 C   0  0  0  0  0  0  0  0  0  0  0  0
   -4.8111    0.9044    2.2105 C   0  0  0  0  0  0  0  0  0  0  0  0
   -5.4601    1.9437    1.2746 C   0  0  0  0  0  0  0  0  0  0  0  0
   -4.4681    2.1147    0.1004 C   0  0  0  0  0  0  0  0  0  0  0  0
    6.8624   -1.0752   -1.2460 H   0  0  0  0  0  0  0  0  0  0  0  0
    5.1205   -0.1024   -1.9197 H   0  0  0  0  0  0  0  0  0  0  0  0
    4.6643   -1.8471    0.0204 H   0  0  0  0  0  0  0  0  0  0  0  0
    3.3854   -1.4441   -1.1094 H   0  0  0  0  0  0  0  0  0  0  0  0
    3.7912    0.0094    1.5335 H   0  0  0  0  0  0  0  0  0  0  0  0
    2.6925   -1.3452    1.3895 H   0  0  0  0  0  0  0  0  0  0  0  0
    2.0030    2.0782   -1.1016 H   0  0  0  0  0  0  0  0  0  0  0  0
    2.3733    0.5258   -1.8264 H   0  0  0  0  0  0  0  0  0  0  0  0
    4.4013    2.1104   -1.6307 H   0  0  0  0  0  0  0  0  0  0  0  0
    4.2706    1.9452    0.1087 H   0  0  0  0  0  0  0  0  0  0  0  0
    1.5035   -2.2856   -0.1067 H   0  0  0  0  0  0  0  0  0  0  0  0
   -0.5989   -3.2921   -0.7883 H   0  0  0  0  0  0  0  0  0  0  0  0
   -2.3496   -3.6366   -2.1908 H   0  0  0  0  0  0  0  0  0  0  0  0
   -4.0407   -3.5061   -1.6626 H   0  0  0  0  0  0  0  0  0  0  0  0
   -2.7686   -3.8656   -0.4748 H   0  0  0  0  0  0  0  0  0  0  0  0
   -0.3689    1.5853   -0.0762 H   0  0  0  0  0  0  0  0  0  0  0  0
   -2.5353    1.7044    1.0049 H   0  0  0  0  0  0  0  0  0  0  0  0
   -3.1843   -0.5271    1.7927 H   0  0  0  0  0  0  0  0  0  0  0  0
   -4.5227   -0.5563    0.6307 H   0  0  0  0  0  0  0  0  0  0  0  0
   -4.1908    1.4062    2.9552 H   0  0  0  0  0  0  0  0  0  0  0  0
   -5.5423    0.3031    2.7468 H   0  0  0  0  0  0  0  0  0  0  0  0
   -6.4140    1.5693    0.9067 H   0  0  0  0  0  0  0  0  0  0  0  0
   -5.6609    2.8817    1.7875 H   0  0  0  0  0  0  0  0  0  0  0  0
   -4.1389    3.1422   -0.0352 H   0  0  0  0  0  0  0  0  0  0  0  0
   -4.9049    1.7803   -0.8397 H   0  0  0  0  0  0  0  0  0  0  0  0
  1  2  1  0  0  0  0
  2  3  2  0  0  0  0
  4 27  1  6  0  0  0
  4  9  1  0  0  0  0
  4  5  1  0  0  0  0
  4  2  1  0  0  0  0
  5 28  1  0  0  0  0
  5  6  1  0  0  0  0
  6 31  1  0  0  0  0
  6 30  1  0  0  0  0
  7 12  1  6  0  0  0
  7  6  1  0  0  0  0
  7 10  1  0  0  0  0
  8  9  1  0  0  0  0
  8  7  1  0  0  0  0
  9 35  1  0  0  0  0
 10 11  3  0  0  0  0
 13 36  1  0  0  0  0
 13 12  2  0  0  0  0
 14 13  1  0  0  0  0
 15 14  2  0  0  0  0
 15 18  1  0  0  0  0
 16 15  1  0  0  0  0
 17 16  1  0  0  0  0
 17 40  1  0  0  0  0
 18 19  2  0  0  0  0
 19 41  1  0  0  0  0
 19 12  1  0  0  0  0
 20 18  1  0  0  0  0
 20 21  1  0  0  0  0
 21 42  1  0  0  0  0
 21 22  1  0  0  0  0
 22 43  1  0  0  0  0
 22 23  1  0  0  0  0
 23 46  1  0  0  0  0
 23 45  1  0  0  0  0
 24 48  1  0  0  0  0
 24 23  1  0  0  0  0
 25 21  1  0  0  0  0
 25 24  1  0  0  0  0
 26  1  1  0  0  0  0
 29  5  1  0  0  0  0
 32  8  1  0  0  0  0
 33  8  1  0  0  0  0
 34  9  1  0  0  0  0
 37 14  1  0  0  0  0
 38 17  1  0  0  0  0
 39 17  1  0  0  0  0
 44 22  1  0  0  0  0
 47 24  1  0  0  0  0
 49 25  1  0  0  0  0
 50 25  1  0  0  0  0
M  END
