omegapdb_1qxw_18.xyz
 OpenBabel11041815263D

 36 36  0  0  1  0  0  0  0  0999 V2000
    5.0530    0.0243   -0.4284 C   0  0  0  0  0  0  0  0  0  0  0  0
    4.5955   -0.2253    0.9873 C   0  0  0  0  0  0  0  0  0  0  0  0
    3.6007   -0.2205   -0.1405 C   0  0  0  0  0  0  0  0  0  0  0  0
    2.7346    0.9208   -0.2141 N   0  0  0  0  0  0  0  0  0  0  0  0
    1.6446    0.9338    0.7425 C   0  0  0  0  0  0  0  0  0  0  0  0
    0.4606   -0.0176    0.5290 C   0  0  0  0  0  0  0  0  0  0  0  0
   -0.3489    0.2685   -0.7463 C   0  0  1  0  0  0  0  0  0  0  0  0
    0.5119   -0.0099   -1.9003 N   0  0  0  0  0  0  0  0  0  0  0  0
   -1.6946   -0.4795   -0.7632 C   0  0  0  0  0  0  0  0  0  0  0  0
   -2.8710    0.3158   -0.2033 C   0  0  0  0  0  0  0  0  0  0  0  0
   -4.1724   -0.4755   -0.2100 C   0  0  0  0  0  0  0  0  0  0  0  0
   -5.3493    0.3386    0.3113 C   0  0  0  0  0  0  0  0  0  0  0  0
   -0.3285    0.1751    1.6878 O   0  0  0  0  0  0  0  0  0  0  0  0
    0.8570   -1.3730    0.4326 O   0  0  0  0  0  0  0  0  0  0  0  0
    5.6125   -0.7528   -0.9259 H   0  0  0  0  0  0  0  0  0  0  0  0
    5.3164    1.0390   -0.6808 H   0  0  0  0  0  0  0  0  0  0  0  0
    4.5706    0.6292    1.6459 H   0  0  0  0  0  0  0  0  0  0  0  0
    4.8521   -1.1673    1.4470 H   0  0  0  0  0  0  0  0  0  0  0  0
    3.2160   -1.1887   -0.4443 H   0  0  0  0  0  0  0  0  0  0  0  0
    2.3425    0.9800   -1.1481 H   0  0  0  0  0  0  0  0  0  0  0  0
    1.2268    1.9408    0.7951 H   0  0  0  0  0  0  0  0  0  0  0  0
    2.0487    0.7090    1.7329 H   0  0  0  0  0  0  0  0  0  0  0  0
   -0.5543    1.3421   -0.7430 H   0  0  0  0  0  0  0  0  0  0  0  0
   -0.0140    0.1380   -2.7537 H   0  0  0  0  0  0  0  0  0  0  0  0
    0.7634   -0.9926   -1.8790 H   0  0  0  0  0  0  0  0  0  0  0  0
   -1.5913   -1.4385   -0.2464 H   0  0  0  0  0  0  0  0  0  0  0  0
   -1.9193   -0.7314   -1.8025 H   0  0  0  0  0  0  0  0  0  0  0  0
   -2.9981    1.2215   -0.8037 H   0  0  0  0  0  0  0  0  0  0  0  0
   -2.6550    0.6584    0.8100 H   0  0  0  0  0  0  0  0  0  0  0  0
   -4.0485   -1.3757    0.3968 H   0  0  0  0  0  0  0  0  0  0  0  0
   -4.3798   -0.8175   -1.2266 H   0  0  0  0  0  0  0  0  0  0  0  0
   -5.5066    1.2260   -0.3014 H   0  0  0  0  0  0  0  0  0  0  0  0
   -6.2721   -0.2391    0.3065 H   0  0  0  0  0  0  0  0  0  0  0  0
   -5.1669    0.6708    1.3330 H   0  0  0  0  0  0  0  0  0  0  0  0
   -1.0198   -0.4968    1.6613 H   0  0  0  0  0  0  0  0  0  0  0  0
    1.4834   -1.5304    1.1495 H   0  0  0  0  0  0  0  0  0  0  0  0
  1  3  1  0  0  0  0
  1  2  1  0  0  0  0
  2 18  1  0  0  0  0
  2 17  1  0  0  0  0
  3  2  1  0  0  0  0
  4  3  1  0  0  0  0
  4  5  1  0  0  0  0
  5 21  1  0  0  0  0
  5 22  1  0  0  0  0
  6  5  1  0  0  0  0
  6 13  1  0  0  0  0
  7 23  1  6  0  0  0
  7  6  1  0  0  0  0
  8 25  1  0  0  0  0
  8  7  1  0  0  0  0
  9  7  1  0  0  0  0
  9 26  1  0  0  0  0
  9 10  1  0  0  0  0
 10 29  1  0  0  0  0
 11 10  1  0  0  0  0
 11 12  1  0  0  0  0
 11 30  1  0  0  0  0
 12 34  1  0  0  0  0
 14  6  1  0  0  0  0
 14 36  1  0  0  0  0
 15  1  1  0  0  0  0
 16  1  1  0  0  0  0
 19  3  1  0  0  0  0
 20  4  1  0  0  0  0
 24  8  1  0  0  0  0
 27  9  1  0  0  0  0
 28 10  1  0  0  0  0
 31 11  1  0  0  0  0
 32 12  1  0  0  0  0
 33 12  1  0  0  0  0
 35 13  1  0  0  0  0
M  END
