omegapdb_1xom_06.xyz
 OpenBabel11041815263D

 50 52  0  0  1  0  0  0  0  0999 V2000
    6.0505    1.3858   -0.0759 O   0  0  0  0  0  0  0  0  0  0  0  0
    5.0051    2.2042   -0.3499 C   0  0  0  0  0  0  0  0  0  0  0  0
    5.1479    3.3730   -0.6303 O   0  0  0  0  0  0  0  0  0  0  0  0
    3.6921    1.4773   -0.2606 C   0  0  1  0  0  0  0  0  0  0  0  0
    3.6126    0.3468   -1.2905 C   0  0  0  0  0  0  0  0  0  0  0  0
    2.2539   -0.3396   -1.2208 C   0  0  0  0  0  0  0  0  0  0  0  0
    1.9504   -0.8923    0.1890 C   0  0  2  0  0  0  0  0  0  0  0  0
    2.0939    0.2430    1.2265 C   0  0  0  0  0  0  0  0  0  0  0  0
    3.4534    0.9269    1.1482 C   0  0  0  0  0  0  0  0  0  0  0  0
    2.9604   -1.9063    0.4964 C   0  0  0  0  0  0  0  0  0  0  0  0
    3.7966   -2.6935    0.7358 N   0  0  0  0  0  0  0  0  0  0  0  0
    0.5639   -1.5084    0.2462 C   0  0  0  0  0  0  0  0  0  0  0  0
    0.3503   -2.8458    0.5529 C   0  0  0  0  0  0  0  0  0  0  0  0
   -0.9477   -3.3645    0.5987 C   0  0  0  0  0  0  0  0  0  0  0  0
   -2.0467   -2.5533    0.3397 C   0  0  0  0  0  0  0  0  0  0  0  0
   -3.3405   -2.9565    0.3578 O   0  0  0  0  0  0  0  0  0  0  0  0
   -3.5597   -4.3232    0.6652 C   0  0  0  0  0  0  0  0  0  0  0  0
   -1.8398   -1.1900    0.0268 C   0  0  0  0  0  0  0  0  0  0  0  0
   -0.5444   -0.6872   -0.0155 C   0  0  0  0  0  0  0  0  0  0  0  0
   -2.9677   -0.4784   -0.2229 O   0  0  0  0  0  0  0  0  0  0  0  0
   -2.8266    0.9077   -0.5097 C   0  0  0  0  0  0  0  0  0  0  0  0
   -4.1633    1.4256   -1.0306 C   0  0  0  0  0  0  0  0  0  0  0  0
   -4.1555    2.9384   -0.7224 C   0  0  0  0  0  0  0  0  0  0  0  0
   -2.9109    3.1767    0.1642 C   0  0  0  0  0  0  0  0  0  0  0  0
   -2.5566    1.7922    0.7035 C   0  0  0  0  0  0  0  0  0  0  0  0
    6.8418    1.9390   -0.1602 H   0  0  0  0  0  0  0  0  0  0  0  0
    2.9276    2.2229   -0.4881 H   0  0  0  0  0  0  0  0  0  0  0  0
    4.4081   -0.3744   -1.0950 H   0  0  0  0  0  0  0  0  0  0  0  0
    3.7708    0.7434   -2.2947 H   0  0  0  0  0  0  0  0  0  0  0  0
    2.1923   -1.1566   -1.9412 H   0  0  0  0  0  0  0  0  0  0  0  0
    1.4661    0.3742   -1.4716 H   0  0  0  0  0  0  0  0  0  0  0  0
    1.9187   -0.1649    2.2230 H   0  0  0  0  0  0  0  0  0  0  0  0
    1.3032    0.9708    1.0300 H   0  0  0  0  0  0  0  0  0  0  0  0
    4.2453    0.2182    1.3966 H   0  0  0  0  0  0  0  0  0  0  0  0
    3.4983    1.7361    1.8790 H   0  0  0  0  0  0  0  0  0  0  0  0
    1.1874   -3.4976    0.7615 H   0  0  0  0  0  0  0  0  0  0  0  0
   -1.0861   -4.4072    0.8392 H   0  0  0  0  0  0  0  0  0  0  0  0
   -3.0836   -4.9750   -0.0690 H   0  0  0  0  0  0  0  0  0  0  0  0
   -3.1890   -4.5691    1.6617 H   0  0  0  0  0  0  0  0  0  0  0  0
   -4.6344   -4.4647    0.6331 H   0  0  0  0  0  0  0  0  0  0  0  0
   -0.3941    0.3551   -0.2506 H   0  0  0  0  0  0  0  0  0  0  0  0
   -2.0460    1.0484   -1.2658 H   0  0  0  0  0  0  0  0  0  0  0  0
   -4.3075    1.1987   -2.0841 H   0  0  0  0  0  0  0  0  0  0  0  0
   -4.9455    0.9131   -0.4715 H   0  0  0  0  0  0  0  0  0  0  0  0
   -4.1128    3.5370   -1.6296 H   0  0  0  0  0  0  0  0  0  0  0  0
   -5.0639    3.2237   -0.1960 H   0  0  0  0  0  0  0  0  0  0  0  0
   -3.0877    3.9055    0.9521 H   0  0  0  0  0  0  0  0  0  0  0  0
   -2.0852    3.5514   -0.4426 H   0  0  0  0  0  0  0  0  0  0  0  0
   -3.2504    1.4918    1.4919 H   0  0  0  0  0  0  0  0  0  0  0  0
   -1.5444    1.7214    1.0961 H   0  0  0  0  0  0  0  0  0  0  0  0
  2  4  1  0  0  0  0
  2  1  1  0  0  0  0
  3  2  2  0  0  0  0
  4 27  1  6  0  0  0
  4  9  1  0  0  0  0
  5  6  1  0  0  0  0
  5 28  1  0  0  0  0
  5  4  1  0  0  0  0
  6  7  1  0  0  0  0
  7 12  1  1  0  0  0
  7 10  1  0  0  0  0
  7  8  1  0  0  0  0
  8 32  1  0  0  0  0
  9  8  1  0  0  0  0
  9 34  1  0  0  0  0
  9 35  1  0  0  0  0
 10 11  3  0  0  0  0
 12 13  2  0  0  0  0
 13 14  1  0  0  0  0
 13 36  1  0  0  0  0
 14 37  1  0  0  0  0
 15 16  1  0  0  0  0
 15 14  2  0  0  0  0
 16 17  1  0  0  0  0
 17 39  1  0  0  0  0
 18 15  1  0  0  0  0
 19 18  2  0  0  0  0
 19 12  1  0  0  0  0
 20 18  1  0  0  0  0
 21 20  1  0  0  0  0
 21 25  1  0  0  0  0
 22 23  1  0  0  0  0
 22 21  1  0  0  0  0
 22 44  1  0  0  0  0
 23 46  1  0  0  0  0
 23 24  1  0  0  0  0
 24 25  1  0  0  0  0
 24 47  1  0  0  0  0
 25 50  1  0  0  0  0
 25 49  1  0  0  0  0
 26  1  1  0  0  0  0
 29  5  1  0  0  0  0
 30  6  1  0  0  0  0
 31  6  1  0  0  0  0
 33  8  1  0  0  0  0
 38 17  1  0  0  0  0
 40 17  1  0  0  0  0
 41 19  1  0  0  0  0
 42 21  1  0  0  0  0
 43 22  1  0  0  0  0
 45 23  1  0  0  0  0
 48 24  1  0  0  0  0
M  END
