omegapdb_1qxw_16.xyz
 OpenBabel11041815263D

 36 36  0  0  1  0  0  0  0  0999 V2000
    3.6790    1.9174   -0.6755 C   0  0  0  0  0  0  0  0  0  0  0  0
    4.2807    0.5277   -0.6936 C   0  0  0  0  0  0  0  0  0  0  0  0
    2.8008    0.7317   -0.9038 C   0  0  0  0  0  0  0  0  0  0  0  0
    1.8454    0.3637    0.1063 N   0  0  0  0  0  0  0  0  0  0  0  0
    1.6949   -1.0838    0.2168 C   0  0  0  0  0  0  0  0  0  0  0  0
    0.6563   -1.4210    1.2742 C   0  0  0  0  0  0  0  0  0  0  0  0
   -0.7392   -0.8018    1.0230 C   0  0  1  0  0  0  0  0  0  0  0  0
   -0.7295    0.5757    1.5285 N   0  0  0  0  0  0  0  0  0  0  0  0
   -1.2110   -0.9983   -0.4122 C   0  0  0  0  0  0  0  0  0  0  0  0
   -2.6774   -0.6182   -0.6454 C   0  0  0  0  0  0  0  0  0  0  0  0
   -2.8973    0.8294   -1.0755 C   0  0  0  0  0  0  0  0  0  0  0  0
   -4.3710    1.1462   -1.2926 C   0  0  0  0  0  0  0  0  0  0  0  0
    0.5637   -2.8282    1.2721 O   0  0  0  0  0  0  0  0  0  0  0  0
    1.1080   -0.9897    2.5377 O   0  0  0  0  0  0  0  0  0  0  0  0
    3.6004    2.4072    0.2843 H   0  0  0  0  0  0  0  0  0  0  0  0
    3.8824    2.5754   -1.5056 H   0  0  0  0  0  0  0  0  0  0  0  0
    4.5814    0.1136    0.2578 H   0  0  0  0  0  0  0  0  0  0  0  0
    4.8963    0.2492   -1.5352 H   0  0  0  0  0  0  0  0  0  0  0  0
    2.4305    0.5834   -1.9095 H   0  0  0  0  0  0  0  0  0  0  0  0
    2.1719    0.7039    1.0066 H   0  0  0  0  0  0  0  0  0  0  0  0
    1.3793   -1.4809   -0.7475 H   0  0  0  0  0  0  0  0  0  0  0  0
    2.6222   -1.5928    0.5011 H   0  0  0  0  0  0  0  0  0  0  0  0
   -1.4090   -1.3651    1.6809 H   0  0  0  0  0  0  0  0  0  0  0  0
   -1.6729    0.9165    1.6557 H   0  0  0  0  0  0  0  0  0  0  0  0
   -0.2578    1.1682    0.8528 H   0  0  0  0  0  0  0  0  0  0  0  0
   -1.0575   -2.0503   -0.6587 H   0  0  0  0  0  0  0  0  0  0  0  0
   -0.5739   -0.4115   -1.0788 H   0  0  0  0  0  0  0  0  0  0  0  0
   -3.0982   -1.2622   -1.4208 H   0  0  0  0  0  0  0  0  0  0  0  0
   -3.2587   -0.8231    0.2598 H   0  0  0  0  0  0  0  0  0  0  0  0
   -2.4793    1.5128   -0.3357 H   0  0  0  0  0  0  0  0  0  0  0  0
   -2.3412    1.0065   -1.9988 H   0  0  0  0  0  0  0  0  0  0  0  0
   -4.5182    2.1748   -1.6179 H   0  0  0  0  0  0  0  0  0  0  0  0
   -4.7989    0.4904   -2.0506 H   0  0  0  0  0  0  0  0  0  0  0  0
   -4.9386    1.0013   -0.3733 H   0  0  0  0  0  0  0  0  0  0  0  0
    0.2854   -3.0630    2.1652 H   0  0  0  0  0  0  0  0  0  0  0  0
    0.5510   -0.2052    2.7155 H   0  0  0  0  0  0  0  0  0  0  0  0
  1 15  1  0  0  0  0
  2  1  1  0  0  0  0
  2 17  1  0  0  0  0
  3  2  1  0  0  0  0
  3  1  1  0  0  0  0
  3  4  1  0  0  0  0
  4  5  1  0  0  0  0
  4 20  1  0  0  0  0
  5 22  1  0  0  0  0
  5  6  1  0  0  0  0
  6 14  1  0  0  0  0
  7  6  1  0  0  0  0
  7  8  1  0  0  0  0
  7 23  1  1  0  0  0
  8 24  1  0  0  0  0
  9  7  1  0  0  0  0
 10  9  1  0  0  0  0
 10 29  1  0  0  0  0
 11 10  1  0  0  0  0
 11 30  1  0  0  0  0
 12 11  1  0  0  0  0
 12 34  1  0  0  0  0
 13  6  1  0  0  0  0
 13 35  1  0  0  0  0
 14 36  1  0  0  0  0
 16  1  1  0  0  0  0
 18  2  1  0  0  0  0
 19  3  1  0  0  0  0
 21  5  1  0  0  0  0
 25  8  1  0  0  0  0
 26  9  1  0  0  0  0
 27  9  1  0  0  0  0
 28 10  1  0  0  0  0
 31 11  1  0  0  0  0
 32 12  1  0  0  0  0
 33 12  1  0  0  0  0
M  END
