omegacsd_DIAVER_01.xyz
 OpenBabel11041815263D

 35 36  0  0  0  0  0  0  0  0999 V2000
   -4.5573    0.2089   -0.7775 N   0  0  0  0  0  0  0  0  0  0  0  0
   -4.4934   -1.1192   -0.6424 C   0  0  0  0  0  0  0  0  0  0  0  0
   -3.5330   -1.8238   -0.0275 N   0  0  0  0  0  0  0  0  0  0  0  0
   -2.5510   -1.1231    0.5389 C   0  0  0  0  0  0  0  0  0  0  0  0
   -2.5147    0.2847    0.4981 C   0  0  0  0  0  0  0  0  0  0  0  0
   -3.5547    0.8788   -0.1941 C   0  0  0  0  0  0  0  0  0  0  0  0
   -1.4205    1.0644    1.1585 C   0  0  0  0  0  0  0  0  0  0  0  0
   -0.0553    0.7714    0.5763 C   0  0  0  0  0  0  0  0  0  0  0  0
    1.0515    0.5711    1.4072 C   0  0  0  0  0  0  0  0  0  0  0  0
    2.3109    0.2935    0.8891 C   0  0  0  0  0  0  0  0  0  0  0  0
    2.4899    0.2107   -0.5054 C   0  0  0  0  0  0  0  0  0  0  0  0
    1.3912    0.4202   -1.3417 C   0  0  0  0  0  0  0  0  0  0  0  0
    0.1338    0.6917   -0.8018 C   0  0  0  0  0  0  0  0  0  0  0  0
    3.7449   -0.0918   -0.9316 O   0  0  0  0  0  0  0  0  0  0  0  0
    3.9146   -0.2231   -2.3341 C   0  0  0  0  0  0  0  0  0  0  0  0
    3.3462    0.0429    1.7486 O   0  0  0  0  0  0  0  0  0  0  0  0
    4.3274    1.0814    1.7581 C   0  0  0  0  0  0  0  0  0  0  0  0
   -1.5919   -1.8323    1.2201 N   0  0  0  0  0  0  0  0  0  0  0  0
   -5.5427   -1.8446   -1.1564 N   0  0  0  0  0  0  0  0  0  0  0  0
   -3.5878    1.9602   -0.2833 H   0  0  0  0  0  0  0  0  0  0  0  0
   -1.3998    0.8408    2.2286 H   0  0  0  0  0  0  0  0  0  0  0  0
   -1.6429    2.1299    1.0623 H   0  0  0  0  0  0  0  0  0  0  0  0
    0.9510    0.6160    2.4850 H   0  0  0  0  0  0  0  0  0  0  0  0
    1.5007    0.3576   -2.4135 H   0  0  0  0  0  0  0  0  0  0  0  0
   -0.7098    0.8307   -1.4661 H   0  0  0  0  0  0  0  0  0  0  0  0
    3.2821   -1.0166   -2.7344 H   0  0  0  0  0  0  0  0  0  0  0  0
    4.9573   -0.4809   -2.4835 H   0  0  0  0  0  0  0  0  0  0  0  0
    3.6927    0.7122   -2.8499 H   0  0  0  0  0  0  0  0  0  0  0  0
    5.0837    0.7797    2.4759 H   0  0  0  0  0  0  0  0  0  0  0  0
    4.7795    1.2015    0.7757 H   0  0  0  0  0  0  0  0  0  0  0  0
    3.8780    2.0236    2.0762 H   0  0  0  0  0  0  0  0  0  0  0  0
   -0.6697   -1.4229    1.2374 H   0  0  0  0  0  0  0  0  0  0  0  0
   -1.6080   -2.8193    1.0157 H   0  0  0  0  0  0  0  0  0  0  0  0
   -6.0686   -1.3640   -1.8657 H   0  0  0  0  0  0  0  0  0  0  0  0
   -5.3343   -2.8102   -1.3419 H   0  0  0  0  0  0  0  0  0  0  0  0
  1  2  2  0  0  0  0
  1  6  1  0  0  0  0
  2  3  1  0  0  0  0
  3  4  2  0  0  0  0
  4 18  1  0  0  0  0
  5  4  1  0  0  0  0
  5  7  1  0  0  0  0
  6  5  2  0  0  0  0
  7 21  1  0  0  0  0
  8  7  1  0  0  0  0
  8  9  2  0  0  0  0
  9 23  1  0  0  0  0
 10  9  1  0  0  0  0
 10 16  1  0  0  0  0
 11 10  2  0  0  0  0
 12 13  2  0  0  0  0
 12 11  1  0  0  0  0
 13  8  1  0  0  0  0
 14 11  1  0  0  0  0
 15 14  1  0  0  0  0
 16 17  1  0  0  0  0
 17 31  1  0  0  0  0
 17 29  1  0  0  0  0
 18 32  1  0  0  0  0
 19  2  1  0  0  0  0
 20  6  1  0  0  0  0
 22  7  1  0  0  0  0
 24 12  1  0  0  0  0
 25 13  1  0  0  0  0
 26 15  1  0  0  0  0
 27 15  1  0  0  0  0
 28 15  1  0  0  0  0
 30 17  1  0  0  0  0
 33 18  1  0  0  0  0
 34 19  1  0  0  0  0
 35 19  1  0  0  0  0
M  END
