omegacsd_CEJTIU_09.xyz
 OpenBabel11041815263D

 41 42  0  0  0  0  0  0  0  0999 V2000
   -3.5320   -0.1660    1.9478 C   0  0  0  0  0  0  0  0  0  0  0  0
   -2.3039   -0.8057    1.5193 N   0  0  0  0  0  0  0  0  0  0  0  0
   -2.2193   -2.2190    1.8353 C   0  0  0  0  0  0  0  0  0  0  0  0
   -1.7869   -0.4102    0.2869 C   0  0  0  0  0  0  0  0  0  0  0  0
   -2.2084    0.7755   -0.3424 C   0  0  0  0  0  0  0  0  0  0  0  0
   -1.6430    1.1964   -1.5410 C   0  0  0  0  0  0  0  0  0  0  0  0
   -0.6637    0.4338   -2.1689 C   0  0  0  0  0  0  0  0  0  0  0  0
   -0.2517   -0.7572   -1.5709 C   0  0  0  0  0  0  0  0  0  0  0  0
   -0.7980   -1.1718   -0.3638 C   0  0  0  0  0  0  0  0  0  0  0  0
   -0.1215    0.8484   -3.4125 N   0  0  0  0  0  0  0  0  0  0  0  0
    1.2005    0.8924   -3.7283 C   0  0  0  0  0  0  0  0  0  0  0  0
    1.6436    0.8501   -4.8626 O   0  0  0  0  0  0  0  0  0  0  0  0
    2.0617    0.9613   -2.6082 N   0  0  0  0  0  0  0  0  0  0  0  0
    1.9154    1.8207   -1.5297 C   0  0  0  0  0  0  0  0  0  0  0  0
    1.0038    2.6179   -1.4167 O   0  0  0  0  0  0  0  0  0  0  0  0
    2.9402    1.6006   -0.4371 C   0  0  0  0  0  0  0  0  0  0  0  0
    2.3426    0.6486    0.5710 C   0  0  0  0  0  0  0  0  0  0  0  0
    2.8035   -0.6644    0.6824 C   0  0  0  0  0  0  0  0  0  0  0  0
    2.2457   -1.5327    1.6197 C   0  0  0  0  0  0  0  0  0  0  0  0
    1.2146   -1.0943    2.4484 C   0  0  0  0  0  0  0  0  0  0  0  0
    0.7329    0.2091    2.3255 C   0  0  0  0  0  0  0  0  0  0  0  0
    1.2919    1.0745    1.3900 C   0  0  0  0  0  0  0  0  0  0  0  0
   -3.8164   -0.5740    2.9142 H   0  0  0  0  0  0  0  0  0  0  0  0
   -3.3806    0.9042    2.0733 H   0  0  0  0  0  0  0  0  0  0  0  0
   -4.3612   -0.3177    1.2446 H   0  0  0  0  0  0  0  0  0  0  0  0
   -2.7288   -2.8494    1.0955 H   0  0  0  0  0  0  0  0  0  0  0  0
   -2.6743   -2.3850    2.8087 H   0  0  0  0  0  0  0  0  0  0  0  0
   -1.1807   -2.5345    1.9001 H   0  0  0  0  0  0  0  0  0  0  0  0
   -2.9720    1.3927    0.1044 H   0  0  0  0  0  0  0  0  0  0  0  0
   -1.9509    2.1324   -1.9863 H   0  0  0  0  0  0  0  0  0  0  0  0
    0.4945   -1.3704   -2.0582 H   0  0  0  0  0  0  0  0  0  0  0  0
   -0.4458   -2.0968    0.0642 H   0  0  0  0  0  0  0  0  0  0  0  0
   -0.7251    0.8690   -4.2200 H   0  0  0  0  0  0  0  0  0  0  0  0
    2.9942    0.6373   -2.8121 H   0  0  0  0  0  0  0  0  0  0  0  0
    3.1417    2.5663    0.0228 H   0  0  0  0  0  0  0  0  0  0  0  0
    3.8716    1.1941   -0.8305 H   0  0  0  0  0  0  0  0  0  0  0  0
    3.6139   -1.0026    0.0481 H   0  0  0  0  0  0  0  0  0  0  0  0
    2.6235   -2.5426    1.7091 H   0  0  0  0  0  0  0  0  0  0  0  0
    0.7951   -1.7592    3.1917 H   0  0  0  0  0  0  0  0  0  0  0  0
   -0.0795    0.5458    2.9541 H   0  0  0  0  0  0  0  0  0  0  0  0
    0.9131    2.0827    1.2825 H   0  0  0  0  0  0  0  0  0  0  0  0
  1 24  1  0  0  0  0
  1 23  1  0  0  0  0
  2  3  1  0  0  0  0
  2  1  1  0  0  0  0
  3 28  1  0  0  0  0
  3 27  1  0  0  0  0
  4  2  1  0  0  0  0
  5 29  1  0  0  0  0
  5  4  1  0  0  0  0
  6  5  2  0  0  0  0
  7  8  2  0  0  0  0
  7  6  1  0  0  0  0
  8  9  1  0  0  0  0
  9 32  1  0  0  0  0
  9  4  2  0  0  0  0
 10  7  1  0  0  0  0
 11 10  1  0  0  0  0
 11 13  1  0  0  0  0
 12 11  2  0  0  0  0
 13 14  1  0  0  0  0
 14 15  2  0  0  0  0
 14 16  1  0  0  0  0
 16 35  1  0  0  0  0
 16 17  1  0  0  0  0
 17 18  2  0  0  0  0
 17 22  1  0  0  0  0
 18 19  1  0  0  0  0
 19 38  1  0  0  0  0
 19 20  2  0  0  0  0
 20 39  1  0  0  0  0
 21 20  1  0  0  0  0
 21 40  1  0  0  0  0
 22 21  2  0  0  0  0
 25  1  1  0  0  0  0
 26  3  1  0  0  0  0
 30  6  1  0  0  0  0
 31  8  1  0  0  0  0
 33 10  1  0  0  0  0
 34 13  1  0  0  0  0
 36 16  1  0  0  0  0
 37 18  1  0  0  0  0
 41 22  1  0  0  0  0
M  END
