omegapdb_2byh_19.xyz
 OpenBabel11041815263D

 40 42  0  0  0  0  0  0  0  0999 V2000
    5.4464    2.3671   -0.2016 O   0  0  0  0  0  0  0  0  0  0  0  0
    5.4201    1.3342    0.4493 C   0  0  0  0  0  0  0  0  0  0  0  0
    6.6900    0.6115    0.8236 C   0  0  0  0  0  0  0  0  0  0  0  0
    4.1175    0.7521    0.8961 C   0  0  0  0  0  0  0  0  0  0  0  0
    2.9372    1.4182    0.5463 C   0  0  0  0  0  0  0  0  0  0  0  0
    1.7044    0.9243    0.9429 C   0  0  0  0  0  0  0  0  0  0  0  0
    1.6351   -0.2654    1.6763 C   0  0  0  0  0  0  0  0  0  0  0  0
    2.8061   -0.9311    2.0370 C   0  0  0  0  0  0  0  0  0  0  0  0
    4.0423   -0.4202    1.6543 C   0  0  0  0  0  0  0  0  0  0  0  0
    0.3868   -0.7865    2.0882 N   0  0  0  0  0  0  0  0  0  0  0  0
   -0.7718   -0.8238    1.3616 C   0  0  0  0  0  0  0  0  0  0  0  0
   -1.8601   -0.8622    1.9513 O   0  0  0  0  0  0  0  0  0  0  0  0
   -0.6661   -0.8801   -0.0960 C   0  0  0  0  0  0  0  0  0  0  0  0
    0.4475   -1.2710   -0.8748 C   0  0  0  0  0  0  0  0  0  0  0  0
    0.1491   -1.3228   -2.1765 N   0  0  0  0  0  0  0  0  0  0  0  0
   -1.1393   -0.9721   -2.2219 N   0  0  0  0  0  0  0  0  0  0  0  0
   -1.7122   -0.7037   -1.0166 C   0  0  0  0  0  0  0  0  0  0  0  0
   -3.1315   -0.3611   -0.9909 C   0  0  0  0  0  0  0  0  0  0  0  0
   -3.9653   -0.9596   -1.9501 C   0  0  0  0  0  0  0  0  0  0  0  0
   -5.2865   -0.5748   -2.1121 C   0  0  0  0  0  0  0  0  0  0  0  0
   -6.2743   -1.3435   -3.3007 Cl  0  0  0  0  0  0  0  0  0  0  0  0
   -5.8248    0.4327   -1.3054 C   0  0  0  0  0  0  0  0  0  0  0  0
   -7.1207    0.7910   -1.4998 O   0  0  0  0  0  0  0  0  0  0  0  0
   -5.0187    0.9990   -0.3250 C   0  0  0  0  0  0  0  0  0  0  0  0
   -3.6921    0.6134   -0.1460 C   0  0  0  0  0  0  0  0  0  0  0  0
   -2.9828    1.2393    0.8271 O   0  0  0  0  0  0  0  0  0  0  0  0
    6.6849   -0.4026    0.4253 H   0  0  0  0  0  0  0  0  0  0  0  0
    7.5344    1.1589    0.4182 H   0  0  0  0  0  0  0  0  0  0  0  0
    6.7853    0.5407    1.9066 H   0  0  0  0  0  0  0  0  0  0  0  0
    3.0135    2.3322   -0.0255 H   0  0  0  0  0  0  0  0  0  0  0  0
    0.7914    1.4473    0.6913 H   0  0  0  0  0  0  0  0  0  0  0  0
    2.7395   -1.8525    2.6001 H   0  0  0  0  0  0  0  0  0  0  0  0
    4.9411   -0.9483    1.9388 H   0  0  0  0  0  0  0  0  0  0  0  0
    0.2237   -0.8785    3.0819 H   0  0  0  0  0  0  0  0  0  0  0  0
    1.4401   -1.5313   -0.5517 H   0  0  0  0  0  0  0  0  0  0  0  0
   -1.5895   -0.8704   -3.1181 H   0  0  0  0  0  0  0  0  0  0  0  0
   -3.5892   -1.7635   -2.5686 H   0  0  0  0  0  0  0  0  0  0  0  0
   -7.3376    1.4797   -0.8614 H   0  0  0  0  0  0  0  0  0  0  0  0
   -5.4135    1.7587    0.3380 H   0  0  0  0  0  0  0  0  0  0  0  0
   -2.5605    0.5243    1.3541 H   0  0  0  0  0  0  0  0  0  0  0  0
  1  2  2  0  0  0  0
  2  3  1  0  0  0  0
  2  4  1  0  0  0  0
  3 29  1  0  0  0  0
  4  9  1  0  0  0  0
  5  4  2  0  0  0  0
  5  6  1  0  0  0  0
  6  7  2  0  0  0  0
  7  8  1  0  0  0  0
  7 10  1  0  0  0  0
  8 32  1  0  0  0  0
  9 33  1  0  0  0  0
  9  8  2  0  0  0  0
 10 34  1  0  0  0  0
 11 12  2  0  0  0  0
 11 10  1  0  0  0  0
 13 11  1  0  0  0  0
 14 35  1  0  0  0  0
 14 13  1  0  0  0  0
 15 14  2  0  0  0  0
 16 15  1  0  0  0  0
 16 17  1  0  0  0  0
 17 18  1  0  0  0  0
 17 13  2  0  0  0  0
 18 25  2  0  0  0  0
 19 18  1  0  0  0  0
 20 19  2  0  0  0  0
 20 22  1  0  0  0  0
 21 20  1  0  0  0  0
 22 24  2  0  0  0  0
 23 22  1  0  0  0  0
 23 38  1  0  0  0  0
 24 25  1  0  0  0  0
 24 39  1  0  0  0  0
 25 26  1  0  0  0  0
 26 40  1  0  0  0  0
 27  3  1  0  0  0  0
 28  3  1  0  0  0  0
 30  5  1  0  0  0  0
 31  6  1  0  0  0  0
 36 16  1  0  0  0  0
 37 19  1  0  0  0  0
M  END
