omegapdb_1qxw_24.xyz
 OpenBabel11041815263D

 36 36  0  0  1  0  0  0  0  0999 V2000
    4.2966   -0.6963    0.2443 C   0  0  0  0  0  0  0  0  0  0  0  0
    4.5539    0.6413   -0.4048 C   0  0  0  0  0  0  0  0  0  0  0  0
    3.2153    0.3470    0.2057 C   0  0  0  0  0  0  0  0  0  0  0  0
    2.1374    0.1057   -0.7113 N   0  0  0  0  0  0  0  0  0  0  0  0
    1.1361   -0.8348   -0.2368 C   0  0  0  0  0  0  0  0  0  0  0  0
    0.0872   -0.3058    0.7420 C   0  0  0  0  0  0  0  0  0  0  0  0
   -0.7805    0.8462    0.2098 C   0  0  1  0  0  0  0  0  0  0  0  0
    0.0440    2.0566    0.1249 N   0  0  0  0  0  0  0  0  0  0  0  0
   -1.3646    0.6105   -1.1827 C   0  0  0  0  0  0  0  0  0  0  0  0
   -2.3203   -0.5607   -1.4236 C   0  0  0  0  0  0  0  0  0  0  0  0
   -3.7399   -0.3927   -0.8744 C   0  0  0  0  0  0  0  0  0  0  0  0
   -3.9205   -0.6782    0.6136 C   0  0  0  0  0  0  0  0  0  0  0  0
    0.6674    0.2079    1.9301 O   0  0  0  0  0  0  0  0  0  0  0  0
   -0.7045   -1.4346    1.0484 O   0  0  0  0  0  0  0  0  0  0  0  0
    4.7778   -0.9058    1.1871 H   0  0  0  0  0  0  0  0  0  0  0  0
    4.1659   -1.5387   -0.4173 H   0  0  0  0  0  0  0  0  0  0  0  0
    4.5843    0.6596   -1.4826 H   0  0  0  0  0  0  0  0  0  0  0  0
    5.2047    1.3362    0.1027 H   0  0  0  0  0  0  0  0  0  0  0  0
    2.9980    0.8497    1.1424 H   0  0  0  0  0  0  0  0  0  0  0  0
    1.6814    0.9895   -0.9171 H   0  0  0  0  0  0  0  0  0  0  0  0
    0.5993   -1.2582   -1.0868 H   0  0  0  0  0  0  0  0  0  0  0  0
    1.6439   -1.6681    0.2552 H   0  0  0  0  0  0  0  0  0  0  0  0
   -1.5920    0.9563    0.9405 H   0  0  0  0  0  0  0  0  0  0  0  0
   -0.5389    2.8407   -0.1431 H   0  0  0  0  0  0  0  0  0  0  0  0
    0.4279    2.2624    1.0396 H   0  0  0  0  0  0  0  0  0  0  0  0
   -1.8868    1.5319   -1.4621 H   0  0  0  0  0  0  0  0  0  0  0  0
   -0.5211    0.5341   -1.8721 H   0  0  0  0  0  0  0  0  0  0  0  0
   -2.4016   -0.6676   -2.5073 H   0  0  0  0  0  0  0  0  0  0  0  0
   -1.8888   -1.4889   -1.0507 H   0  0  0  0  0  0  0  0  0  0  0  0
   -4.0936    0.6166   -1.1012 H   0  0  0  0  0  0  0  0  0  0  0  0
   -4.3945   -1.0713   -1.4242 H   0  0  0  0  0  0  0  0  0  0  0  0
   -3.3988    0.0440    1.2388 H   0  0  0  0  0  0  0  0  0  0  0  0
   -3.5521   -1.6743    0.8587 H   0  0  0  0  0  0  0  0  0  0  0  0
   -4.9740   -0.6379    0.8883 H   0  0  0  0  0  0  0  0  0  0  0  0
    1.2428   -0.4858    2.2751 H   0  0  0  0  0  0  0  0  0  0  0  0
   -1.3909   -1.1365    1.6577 H   0  0  0  0  0  0  0  0  0  0  0  0
  1 15  1  0  0  0  0
  2 18  1  0  0  0  0
  2  3  1  0  0  0  0
  2  1  1  0  0  0  0
  3  1  1  0  0  0  0
  3 19  1  0  0  0  0
  4  5  1  0  0  0  0
  4  3  1  0  0  0  0
  5 22  1  0  0  0  0
  5  6  1  0  0  0  0
  6 14  1  0  0  0  0
  6 13  1  0  0  0  0
  7  6  1  0  0  0  0
  7 23  1  1  0  0  0
  8  7  1  0  0  0  0
  8 25  1  0  0  0  0
  9  7  1  0  0  0  0
 10  9  1  0  0  0  0
 10 29  1  0  0  0  0
 10 11  1  0  0  0  0
 11 12  1  0  0  0  0
 12 33  1  0  0  0  0
 12 34  1  0  0  0  0
 12 32  1  0  0  0  0
 13 35  1  0  0  0  0
 14 36  1  0  0  0  0
 16  1  1  0  0  0  0
 17  2  1  0  0  0  0
 20  4  1  0  0  0  0
 21  5  1  0  0  0  0
 24  8  1  0  0  0  0
 26  9  1  0  0  0  0
 27  9  1  0  0  0  0
 28 10  1  0  0  0  0
 30 11  1  0  0  0  0
 31 11  1  0  0  0  0
M  END
