omegacsd_FABSOQ10_09.xyz
 OpenBabel11041815263D

 45 47  0  0  1  0  0  0  0  0999 V2000
   -0.1511   -1.1323    0.5885 S   0  0  0  0  0  0  0  0  0  0  0  0
   -1.2123   -1.9166    1.6889 C   0  0  0  0  0  0  0  0  0  0  0  0
   -0.8747   -3.2469    1.8514 C   0  0  0  0  0  0  0  0  0  0  0  0
    0.2426   -3.6165    1.0770 C   0  0  0  0  0  0  0  0  0  0  0  0
    0.7579   -2.5706    0.3339 C   0  0  0  0  0  0  0  0  0  0  0  0
    1.8909   -2.6244   -0.6406 C   0  0  1  0  0  0  0  0  0  0  0  0
    1.3455   -2.9800   -1.9137 O   0  0  0  0  0  0  0  0  0  0  0  0
    2.6412   -1.3179   -0.6886 C   0  0  0  0  0  0  0  0  0  0  0  0
    3.7229   -1.0900    0.1574 C   0  0  0  0  0  0  0  0  0  0  0  0
    4.3850    0.1374    0.1722 C   0  0  0  0  0  0  0  0  0  0  0  0
    3.9571    1.1595   -0.6791 C   0  0  0  0  0  0  0  0  0  0  0  0
    4.5269    2.3944   -0.7511 O   0  0  0  0  0  0  0  0  0  0  0  0
    5.6153    2.6353    0.1231 C   0  0  0  0  0  0  0  0  0  0  0  0
    2.8762    0.9367   -1.5374 C   0  0  0  0  0  0  0  0  0  0  0  0
    2.2265   -0.2893   -1.5422 C   0  0  0  0  0  0  0  0  0  0  0  0
   -2.2938   -1.1510    2.3930 C   0  0  2  0  0  0  0  0  0  0  0  0
   -3.3295   -2.0939    2.6684 O   0  0  0  0  0  0  0  0  0  0  0  0
   -2.7713    0.0133    1.5663 C   0  0  0  0  0  0  0  0  0  0  0  0
   -2.4155    1.3236    1.8945 C   0  0  0  0  0  0  0  0  0  0  0  0
   -2.8147    2.3883    1.0981 C   0  0  0  0  0  0  0  0  0  0  0  0
   -3.5897    2.1573   -0.0417 C   0  0  0  0  0  0  0  0  0  0  0  0
   -3.9350    3.2629   -0.7572 O   0  0  0  0  0  0  0  0  0  0  0  0
   -4.7095    3.0409   -1.9231 C   0  0  0  0  0  0  0  0  0  0  0  0
   -3.9603    0.8503   -0.3748 C   0  0  0  0  0  0  0  0  0  0  0  0
   -3.5445   -0.2093    0.4280 C   0  0  0  0  0  0  0  0  0  0  0  0
   -1.4297   -3.9043    2.5028 H   0  0  0  0  0  0  0  0  0  0  0  0
    0.6636   -4.6115    1.0402 H   0  0  0  0  0  0  0  0  0  0  0  0
    2.5724   -3.4103   -0.2944 H   0  0  0  0  0  0  0  0  0  0  0  0
    2.0778   -2.9571   -2.5418 H   0  0  0  0  0  0  0  0  0  0  0  0
    4.0550   -1.8774    0.8233 H   0  0  0  0  0  0  0  0  0  0  0  0
    5.2216    0.2787    0.8388 H   0  0  0  0  0  0  0  0  0  0  0  0
    5.3150    2.5338    1.1674 H   0  0  0  0  0  0  0  0  0  0  0  0
    6.4462    1.9578   -0.0810 H   0  0  0  0  0  0  0  0  0  0  0  0
    5.9288    3.6565   -0.0645 H   0  0  0  0  0  0  0  0  0  0  0  0
    2.5636    1.7397   -2.1904 H   0  0  0  0  0  0  0  0  0  0  0  0
    1.3914   -0.4585   -2.2084 H   0  0  0  0  0  0  0  0  0  0  0  0
   -1.8926   -0.7580    3.3356 H   0  0  0  0  0  0  0  0  0  0  0  0
   -4.0370   -1.6026    3.1016 H   0  0  0  0  0  0  0  0  0  0  0  0
   -1.8159    1.5104    2.7772 H   0  0  0  0  0  0  0  0  0  0  0  0
   -2.5424    3.4062    1.3394 H   0  0  0  0  0  0  0  0  0  0  0  0
   -4.8790    4.0195   -2.3592 H   0  0  0  0  0  0  0  0  0  0  0  0
   -4.1775    2.4118   -2.6385 H   0  0  0  0  0  0  0  0  0  0  0  0
   -5.6688    2.5809   -1.6809 H   0  0  0  0  0  0  0  0  0  0  0  0
   -4.5584    0.6464   -1.2494 H   0  0  0  0  0  0  0  0  0  0  0  0
   -3.8200   -1.2232    0.1685 H   0  0  0  0  0  0  0  0  0  0  0  0
  1  2  1  0  0  0  0
  2  3  2  0  0  0  0
  2 16  1  0  0  0  0
  3 26  1  0  0  0  0
  4  3  1  0  0  0  0
  5  1  1  0  0  0  0
  5  4  2  0  0  0  0
  6 28  1  1  0  0  0
  6  5  1  0  0  0  0
  7  6  1  0  0  0  0
  8  6  1  0  0  0  0
  8  9  2  0  0  0  0
  9 10  1  0  0  0  0
  9 30  1  0  0  0  0
 10 31  1  0  0  0  0
 11 10  2  0  0  0  0
 12 11  1  0  0  0  0
 12 13  1  0  0  0  0
 13 32  1  0  0  0  0
 14 11  1  0  0  0  0
 15 14  2  0  0  0  0
 15  8  1  0  0  0  0
 16 17  1  0  0  0  0
 16 37  1  1  0  0  0
 17 38  1  0  0  0  0
 18 19  1  0  0  0  0
 18 16  1  0  0  0  0
 19 39  1  0  0  0  0
 20 40  1  0  0  0  0
 20 19  2  0  0  0  0
 21 20  1  0  0  0  0
 22 21  1  0  0  0  0
 23 43  1  0  0  0  0
 23 22  1  0  0  0  0
 24 21  2  0  0  0  0
 24 25  1  0  0  0  0
 25 18  2  0  0  0  0
 27  4  1  0  0  0  0
 29  7  1  0  0  0  0
 33 13  1  0  0  0  0
 34 13  1  0  0  0  0
 35 14  1  0  0  0  0
 36 15  1  0  0  0  0
 41 23  1  0  0  0  0
 42 23  1  0  0  0  0
 44 24  1  0  0  0  0
 45 25  1  0  0  0  0
M  END
