omegapdb_1m5f_21.xyz
 OpenBabel11041815263D

 25 25  0  0  1  0  0  0  0  0999 V2000
    0.3061   -1.9647   -1.8339 O   0  0  0  0  0  0  0  0  0  0  0  0
   -0.7678   -2.4269   -1.1427 C   0  0  0  0  0  0  0  0  0  0  0  0
   -1.1119   -3.5810   -1.1388 O   0  0  0  0  0  0  0  0  0  0  0  0
   -1.4340   -1.3205   -0.4209 C   0  0  0  0  0  0  0  0  0  0  0  0
   -2.6257   -1.5675    0.1182 N   0  0  0  0  0  0  0  0  0  0  0  0
   -2.9940   -0.3938    0.7266 O   0  0  0  0  0  0  0  0  0  0  0  0
   -2.0334    0.5390    0.5525 C   0  0  0  0  0  0  0  0  0  0  0  0
   -1.0055    0.0104   -0.1832 C   0  0  0  0  0  0  0  0  0  0  0  0
    0.2495    0.7145   -0.5711 C   0  0  0  0  0  0  0  0  0  0  0  0
    1.3928    0.5456    0.4429 C   0  0  2  0  0  0  0  0  0  0  0  0
    2.5503    1.3081   -0.0307 N   0  0  0  0  0  0  0  0  0  0  0  0
    1.7757   -0.9309    0.5465 C   0  0  0  0  0  0  0  0  0  0  0  0
    1.1483   -1.7266    1.2021 O   0  0  0  0  0  0  0  0  0  0  0  0
    2.8525   -1.2614   -0.1811 O   0  0  0  0  0  0  0  0  0  0  0  0
   -2.2728    1.8617    1.1762 C   0  0  0  0  0  0  0  0  0  0  0  0
    0.7307   -2.7527   -2.2067 H   0  0  0  0  0  0  0  0  0  0  0  0
    0.5930    0.3749   -1.5462 H   0  0  0  0  0  0  0  0  0  0  0  0
    0.0415    1.7847   -0.6472 H   0  0  0  0  0  0  0  0  0  0  0  0
    1.0338    0.8496    1.4281 H   0  0  0  0  0  0  0  0  0  0  0  0
    3.1517    1.5716    0.7404 H   0  0  0  0  0  0  0  0  0  0  0  0
    2.2589    2.1627   -0.4876 H   0  0  0  0  0  0  0  0  0  0  0  0
    3.1590   -0.4064   -0.5532 H   0  0  0  0  0  0  0  0  0  0  0  0
   -3.2545    2.2445    0.9034 H   0  0  0  0  0  0  0  0  0  0  0  0
   -2.2251    1.7934    2.2623 H   0  0  0  0  0  0  0  0  0  0  0  0
   -1.5191    2.5717    0.8441 H   0  0  0  0  0  0  0  0  0  0  0  0
  1  2  1  0  0  0  0
  2  3  2  0  0  0  0
  2  4  1  0  0  0  0
  4  8  1  0  0  0  0
  4  5  2  0  0  0  0
  5  6  1  0  0  0  0
  7  6  1  0  0  0  0
  7 15  1  0  0  0  0
  8  7  2  0  0  0  0
  9  8  1  0  0  0  0
  9 10  1  0  0  0  0
 10 12  1  0  0  0  0
 10 19  1  1  0  0  0
 11 10  1  0  0  0  0
 11 20  1  0  0  0  0
 12 13  2  0  0  0  0
 14 12  1  0  0  0  0
 15 24  1  0  0  0  0
 16  1  1  0  0  0  0
 17  9  1  0  0  0  0
 18  9  1  0  0  0  0
 21 11  1  0  0  0  0
 22 14  1  0  0  0  0
 23 15  1  0  0  0  0
 25 15  1  0  0  0  0
M  END
