omegacsd_FABSOQ10_02.xyz
 OpenBabel11041815263D

 45 47  0  0  1  0  0  0  0  0999 V2000
   -0.2163   -0.7045   -0.2827 S   0  0  0  0  0  0  0  0  0  0  0  0
   -1.1717   -1.0546   -1.6793 C   0  0  0  0  0  0  0  0  0  0  0  0
   -0.8173   -2.2748   -2.2170 C   0  0  0  0  0  0  0  0  0  0  0  0
    0.2112   -2.9217   -1.4973 C   0  0  0  0  0  0  0  0  0  0  0  0
    0.6565   -2.1834   -0.4199 C   0  0  0  0  0  0  0  0  0  0  0  0
    1.6990   -2.5722    0.5935 C   0  0  1  0  0  0  0  0  0  0  0  0
    2.3578   -3.7739    0.1936 O   0  0  0  0  0  0  0  0  0  0  0  0
    2.6851   -1.4634    0.8572 C   0  0  0  0  0  0  0  0  0  0  0  0
    3.1619   -1.2254    2.1497 C   0  0  0  0  0  0  0  0  0  0  0  0
    4.1233   -0.2548    2.3860 C   0  0  0  0  0  0  0  0  0  0  0  0
    4.6406    0.4950    1.3245 C   0  0  0  0  0  0  0  0  0  0  0  0
    5.5788    1.4217    1.6570 O   0  0  0  0  0  0  0  0  0  0  0  0
    6.1095    2.1913    0.5911 C   0  0  0  0  0  0  0  0  0  0  0  0
    4.1788    0.2645    0.0258 C   0  0  0  0  0  0  0  0  0  0  0  0
    3.2030   -0.7069   -0.1942 C   0  0  0  0  0  0  0  0  0  0  0  0
   -2.1248   -0.0384   -2.2284 C   0  0  2  0  0  0  0  0  0  0  0  0
   -1.4543    0.9117   -3.0565 O   0  0  0  0  0  0  0  0  0  0  0  0
   -2.9395    0.6220   -1.1348 C   0  0  0  0  0  0  0  0  0  0  0  0
   -3.5440   -0.1552   -0.1465 C   0  0  0  0  0  0  0  0  0  0  0  0
   -4.3201    0.4224    0.8566 C   0  0  0  0  0  0  0  0  0  0  0  0
   -4.4926    1.8091    0.8823 C   0  0  0  0  0  0  0  0  0  0  0  0
   -5.2185    2.4806    1.8191 O   0  0  0  0  0  0  0  0  0  0  0  0
   -5.8319    1.6903    2.8223 C   0  0  0  0  0  0  0  0  0  0  0  0
   -3.8949    2.5943   -0.1061 C   0  0  0  0  0  0  0  0  0  0  0  0
   -3.1326    2.0051   -1.1062 C   0  0  0  0  0  0  0  0  0  0  0  0
   -1.2877   -2.6706   -3.1061 H   0  0  0  0  0  0  0  0  0  0  0  0
    0.6139   -3.8967   -1.7247 H   0  0  0  0  0  0  0  0  0  0  0  0
    1.2074   -2.8314    1.5335 H   0  0  0  0  0  0  0  0  0  0  0  0
    3.0080   -3.5182   -0.4711 H   0  0  0  0  0  0  0  0  0  0  0  0
    2.7736   -1.8074    2.9761 H   0  0  0  0  0  0  0  0  0  0  0  0
    4.4909   -0.0573    3.3833 H   0  0  0  0  0  0  0  0  0  0  0  0
    6.6109    1.5583   -0.1427 H   0  0  0  0  0  0  0  0  0  0  0  0
    5.3300    2.7727    0.0964 H   0  0  0  0  0  0  0  0  0  0  0  0
    6.8316    2.8642    1.0405 H   0  0  0  0  0  0  0  0  0  0  0  0
    4.5558    0.8334   -0.8100 H   0  0  0  0  0  0  0  0  0  0  0  0
    2.8313   -0.8647   -1.1999 H   0  0  0  0  0  0  0  0  0  0  0  0
   -2.7987   -0.5606   -2.9117 H   0  0  0  0  0  0  0  0  0  0  0  0
   -0.7106    1.2472   -2.5418 H   0  0  0  0  0  0  0  0  0  0  0  0
   -3.4058   -1.2295   -0.1518 H   0  0  0  0  0  0  0  0  0  0  0  0
   -4.7707   -0.2115    1.6046 H   0  0  0  0  0  0  0  0  0  0  0  0
   -6.5438    0.9843    2.3913 H   0  0  0  0  0  0  0  0  0  0  0  0
   -5.0894    1.1437    3.4060 H   0  0  0  0  0  0  0  0  0  0  0  0
   -6.3588    2.3841    3.4685 H   0  0  0  0  0  0  0  0  0  0  0  0
   -4.0440    3.6647   -0.0735 H   0  0  0  0  0  0  0  0  0  0  0  0
   -2.6906    2.6164   -1.8794 H   0  0  0  0  0  0  0  0  0  0  0  0
  2  1  1  0  0  0  0
  3  2  2  0  0  0  0
  3  4  1  0  0  0  0
  4  5  2  0  0  0  0
  5  1  1  0  0  0  0
  5  6  1  0  0  0  0
  6  8  1  0  0  0  0
  6 28  1  1  0  0  0
  7  6  1  0  0  0  0
  8  9  2  0  0  0  0
  9 10  1  0  0  0  0
  9 30  1  0  0  0  0
 10 31  1  0  0  0  0
 11 12  1  0  0  0  0
 11 10  2  0  0  0  0
 13 34  1  0  0  0  0
 13 12  1  0  0  0  0
 14 11  1  0  0  0  0
 15 14  2  0  0  0  0
 15  8  1  0  0  0  0
 16 37  1  6  0  0  0
 16  2  1  0  0  0  0
 16 18  1  0  0  0  0
 17 38  1  0  0  0  0
 17 16  1  0  0  0  0
 18 25  2  0  0  0  0
 18 19  1  0  0  0  0
 19 20  2  0  0  0  0
 20 21  1  0  0  0  0
 20 40  1  0  0  0  0
 21 22  1  0  0  0  0
 22 23  1  0  0  0  0
 23 42  1  0  0  0  0
 23 43  1  0  0  0  0
 24 44  1  0  0  0  0
 24 21  2  0  0  0  0
 25 24  1  0  0  0  0
 26  3  1  0  0  0  0
 27  4  1  0  0  0  0
 29  7  1  0  0  0  0
 32 13  1  0  0  0  0
 33 13  1  0  0  0  0
 35 14  1  0  0  0  0
 36 15  1  0  0  0  0
 39 19  1  0  0  0  0
 41 23  1  0  0  0  0
 45 25  1  0  0  0  0
M  END
