omegacsd_CEJTIU_14.xyz
 OpenBabel11041815263D

 41 42  0  0  0  0  0  0  0  0999 V2000
   -5.7018    1.8713    0.2157 C   0  0  0  0  0  0  0  0  0  0  0  0
   -5.0674    0.7104    0.8084 N   0  0  0  0  0  0  0  0  0  0  0  0
   -5.2173    0.5949    2.2451 C   0  0  0  0  0  0  0  0  0  0  0  0
   -3.8472    0.3158    0.2691 C   0  0  0  0  0  0  0  0  0  0  0  0
   -3.4404    0.7243   -1.0138 C   0  0  0  0  0  0  0  0  0  0  0  0
   -2.2506    0.2898   -1.5887 C   0  0  0  0  0  0  0  0  0  0  0  0
   -1.4055   -0.5643   -0.8786 C   0  0  0  0  0  0  0  0  0  0  0  0
   -1.7807   -0.9616    0.4065 C   0  0  0  0  0  0  0  0  0  0  0  0
   -2.9717   -0.5313    0.9742 C   0  0  0  0  0  0  0  0  0  0  0  0
   -0.1753   -1.0412   -1.3682 N   0  0  0  0  0  0  0  0  0  0  0  0
    0.4312   -0.7289   -2.5469 C   0  0  0  0  0  0  0  0  0  0  0  0
   -0.0740   -0.1132   -3.4679 O   0  0  0  0  0  0  0  0  0  0  0  0
    1.7409   -1.2499   -2.6670 N   0  0  0  0  0  0  0  0  0  0  0  0
    2.8317   -1.2512   -1.8032 C   0  0  0  0  0  0  0  0  0  0  0  0
    3.9229   -1.5866   -2.2230 O   0  0  0  0  0  0  0  0  0  0  0  0
    2.6067   -0.8346   -0.3559 C   0  0  0  0  0  0  0  0  0  0  0  0
    3.8792   -0.3781    0.2948 C   0  0  0  0  0  0  0  0  0  0  0  0
    4.8570   -1.2974    0.6791 C   0  0  0  0  0  0  0  0  0  0  0  0
    6.0383   -0.8632    1.2729 C   0  0  0  0  0  0  0  0  0  0  0  0
    6.2556    0.4971    1.4866 C   0  0  0  0  0  0  0  0  0  0  0  0
    5.2853    1.4202    1.1044 C   0  0  0  0  0  0  0  0  0  0  0  0
    4.1031    0.9823    0.5118 C   0  0  0  0  0  0  0  0  0  0  0  0
   -5.0721    2.7689    0.2571 H   0  0  0  0  0  0  0  0  0  0  0  0
   -5.9576    1.6793   -0.8241 H   0  0  0  0  0  0  0  0  0  0  0  0
   -6.6278    2.0699    0.7483 H   0  0  0  0  0  0  0  0  0  0  0  0
   -4.4633    1.1672    2.8003 H   0  0  0  0  0  0  0  0  0  0  0  0
   -6.2032    0.9586    2.5214 H   0  0  0  0  0  0  0  0  0  0  0  0
   -5.1546   -0.4463    2.5550 H   0  0  0  0  0  0  0  0  0  0  0  0
   -4.0602    1.3884   -1.5956 H   0  0  0  0  0  0  0  0  0  0  0  0
   -1.9782    0.6109   -2.5801 H   0  0  0  0  0  0  0  0  0  0  0  0
   -1.1303   -1.6122    0.9799 H   0  0  0  0  0  0  0  0  0  0  0  0
   -3.2105   -0.8650    1.9716 H   0  0  0  0  0  0  0  0  0  0  0  0
    0.2948   -1.7112   -0.7844 H   0  0  0  0  0  0  0  0  0  0  0  0
    2.0278   -1.3276   -3.6345 H   0  0  0  0  0  0  0  0  0  0  0  0
    2.2136   -1.7051    0.1792 H   0  0  0  0  0  0  0  0  0  0  0  0
    1.8489   -0.0552   -0.3000 H   0  0  0  0  0  0  0  0  0  0  0  0
    4.6951   -2.3527    0.5032 H   0  0  0  0  0  0  0  0  0  0  0  0
    6.7891   -1.5843    1.5657 H   0  0  0  0  0  0  0  0  0  0  0  0
    7.1735    0.8342    1.9480 H   0  0  0  0  0  0  0  0  0  0  0  0
    5.4463    2.4770    1.2680 H   0  0  0  0  0  0  0  0  0  0  0  0
    3.3486    1.7009    0.2161 H   0  0  0  0  0  0  0  0  0  0  0  0
  1 23  1  0  0  0  0
  1 25  1  0  0  0  0
  1  2  1  0  0  0  0
  2  3  1  0  0  0  0
  3 27  1  0  0  0  0
  3 28  1  0  0  0  0
  3 26  1  0  0  0  0
  4  2  1  0  0  0  0
  4  9  2  0  0  0  0
  5  4  1  0  0  0  0
  6  5  2  0  0  0  0
  6  7  1  0  0  0  0
  7  8  2  0  0  0  0
  8  9  1  0  0  0  0
  8 31  1  0  0  0  0
  9 32  1  0  0  0  0
 10  7  1  0  0  0  0
 10 33  1  0  0  0  0
 11 10  1  0  0  0  0
 12 11  2  0  0  0  0
 13 11  1  0  0  0  0
 13 14  1  0  0  0  0
 14 16  1  0  0  0  0
 15 14  2  0  0  0  0
 16 36  1  0  0  0  0
 16 35  1  0  0  0  0
 16 17  1  0  0  0  0
 17 22  2  0  0  0  0
 17 18  1  0  0  0  0
 18 19  2  0  0  0  0
 19 20  1  0  0  0  0
 19 38  1  0  0  0  0
 20 39  1  0  0  0  0
 21 40  1  0  0  0  0
 21 20  2  0  0  0  0
 22 21  1  0  0  0  0
 24  1  1  0  0  0  0
 29  5  1  0  0  0  0
 30  6  1  0  0  0  0
 34 13  1  0  0  0  0
 37 18  1  0  0  0  0
 41 22  1  0  0  0  0
M  END
