omegapdb_1xom_08.xyz
 OpenBabel11041815263D

 50 52  0  0  1  0  0  0  0  0999 V2000
    5.9088    2.0580   -1.3020 O   0  0  0  0  0  0  0  0  0  0  0  0
    5.0700    1.9171   -0.2467 C   0  0  0  0  0  0  0  0  0  0  0  0
    5.4190    2.1159    0.8948 O   0  0  0  0  0  0  0  0  0  0  0  0
    3.7084    1.4587   -0.6972 C   0  0  1  0  0  0  0  0  0  0  0  0
    3.8376    0.0517   -1.3287 C   0  0  0  0  0  0  0  0  0  0  0  0
    2.5255   -0.6993   -1.1645 C   0  0  0  0  0  0  0  0  0  0  0  0
    2.2867   -1.0449    0.3313 C   0  0  2  0  0  0  0  0  0  0  0  0
    2.7506    0.1432    1.2205 C   0  0  0  0  0  0  0  0  0  0  0  0
    2.7073    1.4646    0.4619 C   0  0  0  0  0  0  0  0  0  0  0  0
    3.1251   -2.2019    0.6505 C   0  0  0  0  0  0  0  0  0  0  0  0
    3.8219   -3.1167    0.8820 N   0  0  0  0  0  0  0  0  0  0  0  0
    0.8266   -1.4183    0.5196 C   0  0  0  0  0  0  0  0  0  0  0  0
    0.3791   -2.7082    0.2392 C   0  0  0  0  0  0  0  0  0  0  0  0
   -0.9740   -3.0363    0.3293 C   0  0  0  0  0  0  0  0  0  0  0  0
   -1.9128   -2.0723    0.6980 C   0  0  0  0  0  0  0  0  0  0  0  0
   -3.2461   -2.2954    0.8357 O   0  0  0  0  0  0  0  0  0  0  0  0
   -3.6818   -3.6291    0.6211 C   0  0  0  0  0  0  0  0  0  0  0  0
   -1.4705   -0.7635    0.9709 C   0  0  0  0  0  0  0  0  0  0  0  0
   -0.1193   -0.4549    0.8842 C   0  0  0  0  0  0  0  0  0  0  0  0
   -2.3506    0.2023    1.3809 O   0  0  0  0  0  0  0  0  0  0  0  0
   -3.1948    0.6770    0.3190 C   0  0  0  0  0  0  0  0  0  0  0  0
   -4.2203    1.6536    0.9078 C   0  0  0  0  0  0  0  0  0  0  0  0
   -4.3319    2.8086   -0.1112 C   0  0  0  0  0  0  0  0  0  0  0  0
   -3.5800    2.3095   -1.3532 C   0  0  0  0  0  0  0  0  0  0  0  0
   -2.4540    1.4735   -0.7515 C   0  0  0  0  0  0  0  0  0  0  0  0
    6.7627    2.3156   -0.9226 H   0  0  0  0  0  0  0  0  0  0  0  0
    3.3801    2.1510   -1.4744 H   0  0  0  0  0  0  0  0  0  0  0  0
    4.6323   -0.5149   -0.8363 H   0  0  0  0  0  0  0  0  0  0  0  0
    4.1199    0.1386   -2.3760 H   0  0  0  0  0  0  0  0  0  0  0  0
    1.6889   -0.0872   -1.5079 H   0  0  0  0  0  0  0  0  0  0  0  0
    2.5112   -1.6211   -1.7465 H   0  0  0  0  0  0  0  0  0  0  0  0
    2.1381    0.1763    2.1207 H   0  0  0  0  0  0  0  0  0  0  0  0
    3.7766   -0.0285    1.5467 H   0  0  0  0  0  0  0  0  0  0  0  0
    2.9429    2.2828    1.1408 H   0  0  0  0  0  0  0  0  0  0  0  0
    1.7073    1.6445    0.0676 H   0  0  0  0  0  0  0  0  0  0  0  0
    1.0889   -3.4792   -0.0317 H   0  0  0  0  0  0  0  0  0  0  0  0
   -1.2804   -4.0510    0.1263 H   0  0  0  0  0  0  0  0  0  0  0  0
   -3.4810   -3.9520   -0.4016 H   0  0  0  0  0  0  0  0  0  0  0  0
   -3.2022   -4.3160    1.3196 H   0  0  0  0  0  0  0  0  0  0  0  0
   -4.7521   -3.6224    0.7958 H   0  0  0  0  0  0  0  0  0  0  0  0
    0.1632    0.5593    1.1278 H   0  0  0  0  0  0  0  0  0  0  0  0
   -3.6929   -0.1805   -0.1375 H   0  0  0  0  0  0  0  0  0  0  0  0
   -5.1738    1.1588    1.0785 H   0  0  0  0  0  0  0  0  0  0  0  0
   -3.8520    1.9966    1.8730 H   0  0  0  0  0  0  0  0  0  0  0  0
   -3.8345    3.6975    0.2762 H   0  0  0  0  0  0  0  0  0  0  0  0
   -5.3628    3.0826   -0.3255 H   0  0  0  0  0  0  0  0  0  0  0  0
   -4.2290    1.6708   -1.9560 H   0  0  0  0  0  0  0  0  0  0  0  0
   -3.2259    3.1166   -1.9921 H   0  0  0  0  0  0  0  0  0  0  0  0
   -1.9309    0.8445   -1.4701 H   0  0  0  0  0  0  0  0  0  0  0  0
   -1.7252    2.1245   -0.2611 H   0  0  0  0  0  0  0  0  0  0  0  0
  1 26  1  0  0  0  0
  1  2  1  0  0  0  0
  2  3  2  0  0  0  0
  4 27  1  6  0  0  0
  4  2  1  0  0  0  0
  4  9  1  0  0  0  0
  5  6  1  0  0  0  0
  5 28  1  0  0  0  0
  5  4  1  0  0  0  0
  6  7  1  0  0  0  0
  7 12  1  1  0  0  0
  7 10  1  0  0  0  0
  7  8  1  0  0  0  0
  8 33  1  0  0  0  0
  8 32  1  0  0  0  0
  9 34  1  0  0  0  0
  9  8  1  0  0  0  0
 10 11  3  0  0  0  0
 12 19  2  0  0  0  0
 13 14  2  0  0  0  0
 13 12  1  0  0  0  0
 14 15  1  0  0  0  0
 15 16  1  0  0  0  0
 15 18  2  0  0  0  0
 17 40  1  0  0  0  0
 17 16  1  0  0  0  0
 17 39  1  0  0  0  0
 18 20  1  0  0  0  0
 19 18  1  0  0  0  0
 19 41  1  0  0  0  0
 21 22  1  0  0  0  0
 21 20  1  0  0  0  0
 22 43  1  0  0  0  0
 22 44  1  0  0  0  0
 23 45  1  0  0  0  0
 23 22  1  0  0  0  0
 24 25  1  0  0  0  0
 24 23  1  0  0  0  0
 25 50  1  0  0  0  0
 25 21  1  0  0  0  0
 29  5  1  0  0  0  0
 30  6  1  0  0  0  0
 31  6  1  0  0  0  0
 35  9  1  0  0  0  0
 36 13  1  0  0  0  0
 37 14  1  0  0  0  0
 38 17  1  0  0  0  0
 42 21  1  0  0  0  0
 46 23  1  0  0  0  0
 47 24  1  0  0  0  0
 48 24  1  0  0  0  0
 49 25  1  0  0  0  0
M  END
