omegapdb_1qxw_12.xyz
 OpenBabel11041815263D

 36 36  0  0  1  0  0  0  0  0999 V2000
    5.2397    0.4753    1.1145 C   0  0  0  0  0  0  0  0  0  0  0  0
    4.9787    0.4613   -0.3767 C   0  0  0  0  0  0  0  0  0  0  0  0
    4.0959   -0.3142    0.5700 C   0  0  0  0  0  0  0  0  0  0  0  0
    2.7545    0.1130    0.8572 N   0  0  0  0  0  0  0  0  0  0  0  0
    1.8293   -0.1175   -0.2476 C   0  0  0  0  0  0  0  0  0  0  0  0
    0.4271    0.1850    0.2633 C   0  0  0  0  0  0  0  0  0  0  0  0
   -0.6832   -0.2041   -0.7234 C   0  0  1  0  0  0  0  0  0  0  0  0
   -0.7151   -1.6338   -1.0232 N   0  0  0  0  0  0  0  0  0  0  0  0
   -2.0577    0.2159   -0.2073 C   0  0  0  0  0  0  0  0  0  0  0  0
   -3.1486    0.0399   -1.2560 C   0  0  0  0  0  0  0  0  0  0  0  0
   -4.5324    0.4586   -0.7669 C   0  0  0  0  0  0  0  0  0  0  0  0
   -5.0662   -0.4215    0.3578 C   0  0  0  0  0  0  0  0  0  0  0  0
    0.1987   -0.5133    1.4592 O   0  0  0  0  0  0  0  0  0  0  0  0
    0.4411    1.5905    0.4979 O   0  0  0  0  0  0  0  0  0  0  0  0
    6.0986   -0.0576    1.4903 H   0  0  0  0  0  0  0  0  0  0  0  0
    4.9983    1.3831    1.6480 H   0  0  0  0  0  0  0  0  0  0  0  0
    5.6661   -0.0783   -1.0100 H   0  0  0  0  0  0  0  0  0  0  0  0
    4.5586    1.3591   -0.8059 H   0  0  0  0  0  0  0  0  0  0  0  0
    4.2046   -1.3904    0.5618 H   0  0  0  0  0  0  0  0  0  0  0  0
    2.7435    1.1040    1.0761 H   0  0  0  0  0  0  0  0  0  0  0  0
    2.0396    0.4953   -1.1308 H   0  0  0  0  0  0  0  0  0  0  0  0
    1.8967   -1.1679   -0.5251 H   0  0  0  0  0  0  0  0  0  0  0  0
   -0.4815    0.3344   -1.6531 H   0  0  0  0  0  0  0  0  0  0  0  0
    0.0881   -1.9055   -1.5745 H   0  0  0  0  0  0  0  0  0  0  0  0
   -0.6531   -2.1412   -0.1468 H   0  0  0  0  0  0  0  0  0  0  0  0
   -2.2794   -0.3746    0.6832 H   0  0  0  0  0  0  0  0  0  0  0  0
   -2.0358    1.2657    0.0942 H   0  0  0  0  0  0  0  0  0  0  0  0
   -3.1663   -1.0026   -1.5746 H   0  0  0  0  0  0  0  0  0  0  0  0
   -2.8831    0.6328   -2.1355 H   0  0  0  0  0  0  0  0  0  0  0  0
   -5.2287    0.4243   -1.6066 H   0  0  0  0  0  0  0  0  0  0  0  0
   -4.5017    1.4998   -0.4355 H   0  0  0  0  0  0  0  0  0  0  0  0
   -5.0772   -1.4679    0.0520 H   0  0  0  0  0  0  0  0  0  0  0  0
   -6.0829   -0.1413    0.6297 H   0  0  0  0  0  0  0  0  0  0  0  0
   -4.4537   -0.3451    1.2545 H   0  0  0  0  0  0  0  0  0  0  0  0
    1.0731   -0.5225    1.8889 H   0  0  0  0  0  0  0  0  0  0  0  0
   -0.2850    1.7612    1.1082 H   0  0  0  0  0  0  0  0  0  0  0  0
  1 15  1  0  0  0  0
  1 16  1  0  0  0  0
  2  3  1  0  0  0  0
  2  1  1  0  0  0  0
  3  4  1  0  0  0  0
  3  1  1  0  0  0  0
  4 20  1  0  0  0  0
  5  6  1  0  0  0  0
  5  4  1  0  0  0  0
  6 14  1  0  0  0  0
  6 13  1  0  0  0  0
  7 23  1  6  0  0  0
  7  9  1  0  0  0  0
  7  6  1  0  0  0  0
  8  7  1  0  0  0  0
  8 25  1  0  0  0  0
  9 27  1  0  0  0  0
  9 26  1  0  0  0  0
 10 11  1  0  0  0  0
 10  9  1  0  0  0  0
 11 31  1  0  0  0  0
 11 12  1  0  0  0  0
 12 33  1  0  0  0  0
 12 34  1  0  0  0  0
 13 35  1  0  0  0  0
 14 36  1  0  0  0  0
 17  2  1  0  0  0  0
 18  2  1  0  0  0  0
 19  3  1  0  0  0  0
 21  5  1  0  0  0  0
 22  5  1  0  0  0  0
 24  8  1  0  0  0  0
 28 10  1  0  0  0  0
 29 10  1  0  0  0  0
 30 11  1  0  0  0  0
 32 12  1  0  0  0  0
M  END
