omegapdb_1v2k_12.xyz
 OpenBabel11041815263D

 61 65  0  0  0  0  0  0  0  0999 V2000
    8.8573    1.3716   -2.0739 N   0  0  0  0  0  0  0  0  0  0  0  0
    8.5310    0.1253   -1.7024 C   0  0  0  0  0  0  0  0  0  0  0  0
    7.3050   -0.2521   -1.1738 C   0  0  0  0  0  0  0  0  0  0  0  0
    6.2984    0.7143   -0.9907 C   0  0  0  0  0  0  0  0  0  0  0  0
    6.6345    2.0252   -1.3769 C   0  0  0  0  0  0  0  0  0  0  0  0
    7.8935    2.2860   -1.9002 C   0  0  0  0  0  0  0  0  0  0  0  0
    5.0707    0.3971   -0.4768 N   0  0  0  0  0  0  0  0  0  0  0  0
    4.8411   -0.8646    0.2161 C   0  0  0  0  0  0  0  0  0  0  0  0
    3.8282   -0.6553    1.3316 C   0  0  0  0  0  0  0  0  0  0  0  0
    2.4676   -0.1896    0.7981 C   0  0  0  0  0  0  0  0  0  0  0  0
    2.6561    0.5971   -0.5140 C   0  0  0  0  0  0  0  0  0  0  0  0
    3.9785    1.3490   -0.5255 C   0  0  0  0  0  0  0  0  0  0  0  0
    1.5734   -1.3854    0.5197 C   0  0  0  0  0  0  0  0  0  0  0  0
    2.0456   -2.5039    0.3242 O   0  0  0  0  0  0  0  0  0  0  0  0
    0.2276   -1.1815    0.4329 N   0  0  0  0  0  0  0  0  0  0  0  0
   -0.5955   -2.3508    0.1263 C   0  0  0  0  0  0  0  0  0  0  0  0
   -2.0624   -2.0021    0.3140 C   0  0  0  0  0  0  0  0  0  0  0  0
   -2.2013   -1.3287    1.6023 N   0  0  0  0  0  0  0  0  0  0  0  0
   -1.5123   -0.0320    1.7095 C   0  0  0  0  0  0  0  0  0  0  0  0
   -0.4757    0.0713    0.5949 C   0  0  0  0  0  0  0  0  0  0  0  0
   -3.6768   -1.4165    2.3510 S   0  0  0  0  0  0  0  0  0  0  0  0
   -3.5149   -0.7589    3.6296 O   0  0  0  0  0  0  0  0  0  0  0  0
   -4.1262   -2.7860    2.2283 O   0  0  0  0  0  0  0  0  0  0  0  0
   -4.7332   -0.4011    1.3507 C   0  0  0  0  0  0  0  0  0  0  0  0
   -5.3236   -0.9544    0.2321 C   0  0  0  0  0  0  0  0  0  0  0  0
   -6.0990   -0.1427   -0.6226 C   0  0  0  0  0  0  0  0  0  0  0  0
   -6.2554    1.2467   -0.3158 C   0  0  0  0  0  0  0  0  0  0  0  0
   -5.6440    1.7685    0.8485 C   0  0  0  0  0  0  0  0  0  0  0  0
   -4.8898    0.9639    1.6738 C   0  0  0  0  0  0  0  0  0  0  0  0
   -7.0288    2.0617   -1.1716 C   0  0  0  0  0  0  0  0  0  0  0  0
   -7.6204    1.5126   -2.2862 C   0  0  0  0  0  0  0  0  0  0  0  0
   -7.4779    0.1445   -2.5982 C   0  0  0  0  0  0  0  0  0  0  0  0
   -6.7300   -0.6656   -1.7761 C   0  0  0  0  0  0  0  0  0  0  0  0
   -8.5672    2.5087   -3.3392 Cl  0  0  0  0  0  0  0  0  0  0  0  0
    9.2969   -0.6282   -1.8440 H   0  0  0  0  0  0  0  0  0  0  0  0
    7.1344   -1.2919   -0.9397 H   0  0  0  0  0  0  0  0  0  0  0  0
    5.9436    2.8450   -1.2507 H   0  0  0  0  0  0  0  0  0  0  0  0
    8.1432    3.3003   -2.1890 H   0  0  0  0  0  0  0  0  0  0  0  0
    4.4960   -1.6508   -0.4611 H   0  0  0  0  0  0  0  0  0  0  0  0
    5.7848   -1.1897    0.6524 H   0  0  0  0  0  0  0  0  0  0  0  0
    3.7098   -1.5838    1.8861 H   0  0  0  0  0  0  0  0  0  0  0  0
    4.2244    0.0990    2.0128 H   0  0  0  0  0  0  0  0  0  0  0  0
    2.0102    0.4601    1.5455 H   0  0  0  0  0  0  0  0  0  0  0  0
    1.8352    1.2964   -0.6763 H   0  0  0  0  0  0  0  0  0  0  0  0
    2.6580   -0.0993   -1.3553 H   0  0  0  0  0  0  0  0  0  0  0  0
    4.0576    1.9200   -1.4510 H   0  0  0  0  0  0  0  0  0  0  0  0
    4.0155    2.0673    0.3054 H   0  0  0  0  0  0  0  0  0  0  0  0
   -0.4095   -2.6925   -0.8944 H   0  0  0  0  0  0  0  0  0  0  0  0
   -0.3141   -3.1557    0.8026 H   0  0  0  0  0  0  0  0  0  0  0  0
   -2.4411   -1.3844   -0.5086 H   0  0  0  0  0  0  0  0  0  0  0  0
   -2.6452   -2.9186    0.3465 H   0  0  0  0  0  0  0  0  0  0  0  0
   -1.0357    0.0236    2.6859 H   0  0  0  0  0  0  0  0  0  0  0  0
   -2.2109    0.8060    1.6152 H   0  0  0  0  0  0  0  0  0  0  0  0
    0.2223    0.8650    0.8373 H   0  0  0  0  0  0  0  0  0  0  0  0
   -0.9605    0.3486   -0.3447 H   0  0  0  0  0  0  0  0  0  0  0  0
   -5.2199   -2.0132    0.0318 H   0  0  0  0  0  0  0  0  0  0  0  0
   -5.7842    2.8146    1.0905 H   0  0  0  0  0  0  0  0  0  0  0  0
   -4.4492    1.3457    2.5838 H   0  0  0  0  0  0  0  0  0  0  0  0
   -7.1566    3.1126   -0.9496 H   0  0  0  0  0  0  0  0  0  0  0  0
   -7.9607   -0.2510   -3.4803 H   0  0  0  0  0  0  0  0  0  0  0  0
   -6.6184   -1.7173   -2.0074 H   0  0  0  0  0  0  0  0  0  0  0  0
  1  6  2  0  0  0  0
  1  2  1  0  0  0  0
  2  3  2  0  0  0  0
  3  4  1  0  0  0  0
  3 36  1  0  0  0  0
  4  7  1  0  0  0  0
  5 37  1  0  0  0  0
  5  4  2  0  0  0  0
  6  5  1  0  0  0  0
  7  8  1  0  0  0  0
  8 40  1  0  0  0  0
  8  9  1  0  0  0  0
  9 41  1  0  0  0  0
  9 42  1  0  0  0  0
 10  9  1  0  0  0  0
 10 43  1  0  0  0  0
 11 10  1  0  0  0  0
 12 11  1  0  0  0  0
 12  7  1  0  0  0  0
 12 47  1  0  0  0  0
 13 10  1  0  0  0  0
 14 13  2  0  0  0  0
 15 13  1  0  0  0  0
 15 20  1  0  0  0  0
 16 17  1  0  0  0  0
 16 15  1  0  0  0  0
 16 49  1  0  0  0  0
 17 51  1  0  0  0  0
 17 18  1  0  0  0  0
 18 19  1  0  0  0  0
 18 21  1  0  0  0  0
 19 52  1  0  0  0  0
 20 54  1  0  0  0  0
 20 19  1  0  0  0  0
 21 22  2  0  0  0  0
 23 21  2  0  0  0  0
 24 29  1  0  0  0  0
 24 21  1  0  0  0  0
 25 24  2  0  0  0  0
 26 27  1  0  0  0  0
 26 25  1  0  0  0  0
 27 28  1  0  0  0  0
 28 57  1  0  0  0  0
 28 29  2  0  0  0  0
 29 58  1  0  0  0  0
 30 59  1  0  0  0  0
 30 27  2  0  0  0  0
 31 30  1  0  0  0  0
 32 31  2  0  0  0  0
 32 33  1  0  0  0  0
 33 26  2  0  0  0  0
 34 31  1  0  0  0  0
 35  2  1  0  0  0  0
 38  6  1  0  0  0  0
 39  8  1  0  0  0  0
 44 11  1  0  0  0  0
 45 11  1  0  0  0  0
 46 12  1  0  0  0  0
 48 16  1  0  0  0  0
 50 17  1  0  0  0  0
 53 19  1  0  0  0  0
 55 20  1  0  0  0  0
 56 25  1  0  0  0  0
 60 32  1  0  0  0  0
 61 33  1  0  0  0  0
M  END
