omegapdb_1xom_23.xyz
 OpenBabel11041815263D

 50 52  0  0  1  0  0  0  0  0999 V2000
    6.2371    2.1876    0.1094 O   0  0  0  0  0  0  0  0  0  0  0  0
    4.9499    2.2900   -0.3193 C   0  0  0  0  0  0  0  0  0  0  0  0
    4.6986    2.9146   -1.3178 O   0  0  0  0  0  0  0  0  0  0  0  0
    3.9315    1.5539    0.5298 C   0  0  1  0  0  0  0  0  0  0  0  0
    2.5094    1.8020    0.0195 C   0  0  0  0  0  0  0  0  0  0  0  0
    2.1458    0.8016   -1.0709 C   0  0  0  0  0  0  0  0  0  0  0  0
    2.0968   -0.6549   -0.5249 C   0  0  2  0  0  0  0  0  0  0  0  0
    2.9907   -0.7657    0.7395 C   0  0  0  0  0  0  0  0  0  0  0  0
    4.2669    0.0413    0.5516 C   0  0  0  0  0  0  0  0  0  0  0  0
    2.6715   -1.5383   -1.5410 C   0  0  0  0  0  0  0  0  0  0  0  0
    3.1680   -2.2414   -2.3381 N   0  0  0  0  0  0  0  0  0  0  0  0
    0.6974   -1.1320   -0.1792 C   0  0  0  0  0  0  0  0  0  0  0  0
    0.3615   -2.4827   -0.2459 C   0  0  0  0  0  0  0  0  0  0  0  0
   -0.8996   -2.9263    0.1532 C   0  0  0  0  0  0  0  0  0  0  0  0
   -1.8508   -2.0275    0.6371 C   0  0  0  0  0  0  0  0  0  0  0  0
   -3.0924   -2.3724    1.0698 O   0  0  0  0  0  0  0  0  0  0  0  0
   -3.4150   -3.7538    1.0150 C   0  0  0  0  0  0  0  0  0  0  0  0
   -1.5287   -0.6567    0.6886 C   0  0  0  0  0  0  0  0  0  0  0  0
   -0.2665   -0.2334    0.2867 C   0  0  0  0  0  0  0  0  0  0  0  0
   -2.3811    0.2885    1.1764 O   0  0  0  0  0  0  0  0  0  0  0  0
   -3.7001    0.3806    0.5798 C   0  0  0  0  0  0  0  0  0  0  0  0
   -4.1386    1.8105    0.8366 C   0  0  0  0  0  0  0  0  0  0  0  0
   -3.3455    2.6396   -0.1911 C   0  0  0  0  0  0  0  0  0  0  0  0
   -2.9659    1.6498   -1.3222 C   0  0  0  0  0  0  0  0  0  0  0  0
   -3.6249    0.3173   -0.9366 C   0  0  0  0  0  0  0  0  0  0  0  0
    6.2597    1.6524    0.9111 H   0  0  0  0  0  0  0  0  0  0  0  0
    4.0164    1.9426    1.5486 H   0  0  0  0  0  0  0  0  0  0  0  0
    2.4453    2.8134   -0.3777 H   0  0  0  0  0  0  0  0  0  0  0  0
    1.8118    1.7301    0.8536 H   0  0  0  0  0  0  0  0  0  0  0  0
    2.8967    0.8692   -1.8585 H   0  0  0  0  0  0  0  0  0  0  0  0
    1.1879    1.0424   -1.5306 H   0  0  0  0  0  0  0  0  0  0  0  0
    2.4217   -0.3900    1.5920 H   0  0  0  0  0  0  0  0  0  0  0  0
    3.2034   -1.8177    0.9301 H   0  0  0  0  0  0  0  0  0  0  0  0
    4.9790   -0.1867    1.3463 H   0  0  0  0  0  0  0  0  0  0  0  0
    4.7386   -0.2575   -0.3881 H   0  0  0  0  0  0  0  0  0  0  0  0
    1.0761   -3.2018   -0.6246 H   0  0  0  0  0  0  0  0  0  0  0  0
   -1.1277   -3.9790    0.0874 H   0  0  0  0  0  0  0  0  0  0  0  0
   -2.7384   -4.3407    1.6375 H   0  0  0  0  0  0  0  0  0  0  0  0
   -3.3822   -4.1266   -0.0096 H   0  0  0  0  0  0  0  0  0  0  0  0
   -4.4257   -3.8372    1.3996 H   0  0  0  0  0  0  0  0  0  0  0  0
   -0.0744    0.8286    0.3498 H   0  0  0  0  0  0  0  0  0  0  0  0
   -4.3479   -0.3726    1.0214 H   0  0  0  0  0  0  0  0  0  0  0  0
   -3.9520    2.1053    1.8672 H   0  0  0  0  0  0  0  0  0  0  0  0
   -5.2113    1.8812    0.6509 H   0  0  0  0  0  0  0  0  0  0  0  0
   -2.4499    3.0522    0.2679 H   0  0  0  0  0  0  0  0  0  0  0  0
   -3.9329    3.4768   -0.5626 H   0  0  0  0  0  0  0  0  0  0  0  0
   -3.2925    1.9930   -2.3017 H   0  0  0  0  0  0  0  0  0  0  0  0
   -1.8849    1.5244   -1.3689 H   0  0  0  0  0  0  0  0  0  0  0  0
   -4.6461    0.2618   -1.3182 H   0  0  0  0  0  0  0  0  0  0  0  0
   -3.0867   -0.5560   -1.3035 H   0  0  0  0  0  0  0  0  0  0  0  0
  1 26  1  0  0  0  0
  2  1  1  0  0  0  0
  2  4  1  0  0  0  0
  3  2  2  0  0  0  0
  4  9  1  0  0  0  0
  4 27  1  1  0  0  0
  5  4  1  0  0  0  0
  5 29  1  0  0  0  0
  6  7  1  0  0  0  0
  6  5  1  0  0  0  0
  7 10  1  6  0  0  0
  7 12  1  0  0  0  0
  7  8  1  0  0  0  0
  8 33  1  0  0  0  0
  8 32  1  0  0  0  0
  9  8  1  0  0  0  0
  9 34  1  0  0  0  0
 11 10  3  0  0  0  0
 12 19  1  0  0  0  0
 13 12  2  0  0  0  0
 13 14  1  0  0  0  0
 14 15  2  0  0  0  0
 15 18  1  0  0  0  0
 15 16  1  0  0  0  0
 17 16  1  0  0  0  0
 17 40  1  0  0  0  0
 17 38  1  0  0  0  0
 18 20  1  0  0  0  0
 19 41  1  0  0  0  0
 19 18  2  0  0  0  0
 21 22  1  0  0  0  0
 21 42  1  0  0  0  0
 21 20  1  0  0  0  0
 22 43  1  0  0  0  0
 23 45  1  0  0  0  0
 23 22  1  0  0  0  0
 24 25  1  0  0  0  0
 24 23  1  0  0  0  0
 25 21  1  0  0  0  0
 28  5  1  0  0  0  0
 30  6  1  0  0  0  0
 31  6  1  0  0  0  0
 35  9  1  0  0  0  0
 36 13  1  0  0  0  0
 37 14  1  0  0  0  0
 39 17  1  0  0  0  0
 44 22  1  0  0  0  0
 46 23  1  0  0  0  0
 47 24  1  0  0  0  0
 48 24  1  0  0  0  0
 49 25  1  0  0  0  0
 50 25  1  0  0  0  0
M  END
