omegapdb_1z1r_10.xyz
 OpenBabel11041815263D

 66 68  0  0  1  0  0  0  0  0999 V2000
    0.7626   -0.8180   -1.5535 C   0  0  2  0  0  0  0  0  0  0  0  0
    0.2336   -1.8273   -2.5838 C   0  0  0  0  0  0  0  0  0  0  0  0
   -1.0092   -2.4604   -2.0187 C   0  0  0  0  0  0  0  0  0  0  0  0
   -0.9635   -3.1596   -0.8081 C   0  0  0  0  0  0  0  0  0  0  0  0
   -2.1270   -3.5370   -0.1434 C   0  0  0  0  0  0  0  0  0  0  0  0
   -3.3744   -3.2139   -0.6873 C   0  0  0  0  0  0  0  0  0  0  0  0
   -3.4338   -2.5782   -1.9287 C   0  0  0  0  0  0  0  0  0  0  0  0
   -2.2621   -2.2010   -2.5788 C   0  0  0  0  0  0  0  0  0  0  0  0
   -4.5614   -3.5285   -0.0894 O   0  0  0  0  0  0  0  0  0  0  0  0
   -4.6911   -3.2382    1.3138 C   0  0  0  0  0  0  0  0  0  0  0  0
   -5.2708   -1.8505    1.5252 C   0  0  0  0  0  0  0  0  0  0  0  0
   -4.2958   -0.7337    1.1755 C   0  0  0  0  0  0  0  0  0  0  0  0
   -3.2179   -0.5778    2.2342 C   0  0  0  0  0  0  0  0  0  0  0  0
   -3.2437   -1.2089    3.2829 O   0  0  0  0  0  0  0  0  0  0  0  0
   -2.2443    0.3699    2.0103 N   0  0  0  0  0  0  0  0  0  0  0  0
   -1.8186    0.8077    0.7036 C   0  0  2  0  0  0  0  0  0  0  0  0
   -0.5493    0.0564    0.3137 C   0  0  0  0  0  0  0  0  0  0  0  0
    0.2456   -0.3432    1.1644 O   0  0  0  0  0  0  0  0  0  0  0  0
   -0.3395   -0.0500   -1.0165 N   0  0  0  0  0  0  0  0  0  0  0  0
   -1.5094    2.3082    0.6497 C   0  0  0  0  0  0  0  0  0  0  0  0
   -1.3201    2.7260   -0.7994 C   0  0  0  0  0  0  0  0  0  0  0  0
   -2.0736    2.3049   -1.6781 O   0  0  0  0  0  0  0  0  0  0  0  0
   -0.3041    3.5751   -1.0482 N   0  0  0  0  0  0  0  0  0  0  0  0
    1.8271    0.1458   -2.0789 C   0  0  2  0  0  0  0  0  0  0  0  0
    2.8777   -0.5108   -2.7778 O   0  0  0  0  0  0  0  0  0  0  0  0
    2.3677    0.9537   -0.9130 C   0  0  0  0  0  0  0  0  0  0  0  0
    3.1401    2.0993   -1.3801 N   0  0  0  0  0  0  0  0  0  0  0  0
    3.5359    3.2248   -0.2319 S   0  0  0  0  0  0  0  0  0  0  0  0
    4.4205    4.1697   -0.8740 O   0  0  0  0  0  0  0  0  0  0  0  0
    2.2808    3.6437    0.3740 O   0  0  0  0  0  0  0  0  0  0  0  0
    4.4354    2.3416    1.0115 C   0  0  0  0  0  0  0  0  0  0  0  0
    5.8264    2.2987    0.9275 C   0  0  0  0  0  0  0  0  0  0  0  0
    6.5314    1.5551    1.8698 C   0  0  0  0  0  0  0  0  0  0  0  0
    5.8498    0.8594    2.8682 C   0  0  0  0  0  0  0  0  0  0  0  0
    4.4583    0.9112    2.9360 C   0  0  0  0  0  0  0  0  0  0  0  0
    3.7370    1.6551    2.0052 C   0  0  0  0  0  0  0  0  0  0  0  0
    1.1768   -1.3638   -0.7012 H   0  0  0  0  0  0  0  0  0  0  0  0
    1.0134   -2.5566   -2.8023 H   0  0  0  0  0  0  0  0  0  0  0  0
    0.0007   -1.3140   -3.5198 H   0  0  0  0  0  0  0  0  0  0  0  0
   -0.0072   -3.3901   -0.3535 H   0  0  0  0  0  0  0  0  0  0  0  0
   -2.0607   -4.0714    0.7936 H   0  0  0  0  0  0  0  0  0  0  0  0
   -4.4048   -2.3571   -2.3505 H   0  0  0  0  0  0  0  0  0  0  0  0
   -2.3263   -1.6671   -3.5195 H   0  0  0  0  0  0  0  0  0  0  0  0
   -3.7350   -3.3362    1.8247 H   0  0  0  0  0  0  0  0  0  0  0  0
   -5.3687   -3.9954    1.7025 H   0  0  0  0  0  0  0  0  0  0  0  0
   -5.5644   -1.7570    2.5706 H   0  0  0  0  0  0  0  0  0  0  0  0
   -6.1662   -1.7613    0.9099 H   0  0  0  0  0  0  0  0  0  0  0  0
   -3.8463   -0.9236    0.2006 H   0  0  0  0  0  0  0  0  0  0  0  0
   -4.8175    0.2223    1.0881 H   0  0  0  0  0  0  0  0  0  0  0  0
   -1.4843    0.2786    2.6751 H   0  0  0  0  0  0  0  0  0  0  0  0
   -2.6051    0.6219   -0.0213 H   0  0  0  0  0  0  0  0  0  0  0  0
   -1.0625    0.2925   -1.6365 H   0  0  0  0  0  0  0  0  0  0  0  0
   -2.3664    2.8537    1.0468 H   0  0  0  0  0  0  0  0  0  0  0  0
   -0.6385    2.5484    1.2618 H   0  0  0  0  0  0  0  0  0  0  0  0
    0.4333    3.7547   -0.3821 H   0  0  0  0  0  0  0  0  0  0  0  0
   -0.1451    3.8307   -2.0087 H   0  0  0  0  0  0  0  0  0  0  0  0
    1.3720    0.8182   -2.8083 H   0  0  0  0  0  0  0  0  0  0  0  0
    3.2857   -1.1344   -2.1651 H   0  0  0  0  0  0  0  0  0  0  0  0
    1.5453    1.3400   -0.3195 H   0  0  0  0  0  0  0  0  0  0  0  0
    2.9561    0.2868   -0.2699 H   0  0  0  0  0  0  0  0  0  0  0  0
    3.9567    1.8556   -1.9323 H   0  0  0  0  0  0  0  0  0  0  0  0
    6.3332    2.8596    0.1551 H   0  0  0  0  0  0  0  0  0  0  0  0
    7.6111    1.5229    1.8276 H   0  0  0  0  0  0  0  0  0  0  0  0
    6.4032    0.2838    3.5971 H   0  0  0  0  0  0  0  0  0  0  0  0
    3.9314    0.3751    3.7129 H   0  0  0  0  0  0  0  0  0  0  0  0
    2.6590    1.7136    2.0546 H   0  0  0  0  0  0  0  0  0  0  0  0
  1 19  1  0  0  0  0
  1 37  1  1  0  0  0
  2  3  1  0  0  0  0
  2  1  1  0  0  0  0
  3  4  1  0  0  0  0
  4 40  1  0  0  0  0
  4  5  2  0  0  0  0
  5 41  1  0  0  0  0
  6  5  1  0  0  0  0
  6  9  1  0  0  0  0
  7  6  2  0  0  0  0
  8  3  2  0  0  0  0
  8  7  1  0  0  0  0
  9 10  1  0  0  0  0
 10 11  1  0  0  0  0
 10 45  1  0  0  0  0
 10 44  1  0  0  0  0
 11 46  1  0  0  0  0
 12 11  1  0  0  0  0
 12 13  1  0  0  0  0
 13 14  2  0  0  0  0
 15 13  1  0  0  0  0
 15 50  1  0  0  0  0
 16 51  1  6  0  0  0
 16 15  1  0  0  0  0
 17 16  1  0  0  0  0
 17 18  2  0  0  0  0
 19 17  1  0  0  0  0
 20 16  1  0  0  0  0
 20 53  1  0  0  0  0
 20 54  1  0  0  0  0
 21 20  1  0  0  0  0
 22 21  2  0  0  0  0
 23 21  1  0  0  0  0
 23 55  1  0  0  0  0
 24 57  1  6  0  0  0
 24  1  1  0  0  0  0
 24 26  1  0  0  0  0
 25 58  1  0  0  0  0
 25 24  1  0  0  0  0
 26 59  1  0  0  0  0
 26 60  1  0  0  0  0
 27 26  1  0  0  0  0
 27 28  1  0  0  0  0
 28 30  2  0  0  0  0
 28 31  1  0  0  0  0
 29 28  2  0  0  0  0
 31 36  1  0  0  0  0
 32 31  2  0  0  0  0
 32 33  1  0  0  0  0
 33 34  2  0  0  0  0
 34 35  1  0  0  0  0
 34 64  1  0  0  0  0
 35 65  1  0  0  0  0
 36 66  1  0  0  0  0
 36 35  2  0  0  0  0
 38  2  1  0  0  0  0
 39  2  1  0  0  0  0
 42  7  1  0  0  0  0
 43  8  1  0  0  0  0
 47 11  1  0  0  0  0
 48 12  1  0  0  0  0
 49 12  1  0  0  0  0
 52 19  1  0  0  0  0
 56 23  1  0  0  0  0
 61 27  1  0  0  0  0
 62 32  1  0  0  0  0
 63 33  1  0  0  0  0
M  END
