omegacsd_FIBREN_09.xyz
 OpenBabel11041815263D

 39 41  0  0  1  0  0  0  0  0999 V2000
   -2.5567   -1.8296    0.1935 N   0  0  0  0  0  0  0  0  0  0  0  0
   -1.2781   -1.8659    0.5999 C   0  0  0  0  0  0  0  0  0  0  0  0
   -0.3746   -0.8650    0.5356 N   0  0  0  0  0  0  0  0  0  0  0  0
   -0.7350    0.3115    0.0137 C   0  0  0  0  0  0  0  0  0  0  0  0
   -2.0543    0.4657   -0.4349 C   0  0  0  0  0  0  0  0  0  0  0  0
   -2.8668   -0.6428   -0.3010 C   0  0  0  0  0  0  0  0  0  0  0  0
   -4.0982   -0.3004   -0.7940 O   0  0  0  0  0  0  0  0  0  0  0  0
   -3.9435    1.0010   -1.1931 C   0  0  0  0  0  0  0  0  0  0  0  0
   -2.7552    1.5127   -1.0093 N   0  0  0  0  0  0  0  0  0  0  0  0
   -5.1324    1.6591   -1.7761 C   0  0  0  0  0  0  0  0  0  0  0  0
    0.1771    1.3094   -0.0904 N   0  0  0  0  0  0  0  0  0  0  0  0
    1.5424    1.1925    0.3938 C   0  0  1  0  0  0  0  0  0  0  0  0
    1.5835    1.0746    1.9228 C   0  0  0  0  0  0  0  0  0  0  0  0
    0.6913    2.1040    2.5523 C   0  0  0  0  0  0  0  0  0  0  0  0
   -0.2041    1.8887    3.3332 O   0  0  0  0  0  0  0  0  0  0  0  0
    1.0054    3.3593    2.1299 O   0  0  0  0  0  0  0  0  0  0  0  0
    2.2838    0.0752   -0.3168 C   0  0  0  0  0  0  0  0  0  0  0  0
    2.0879   -0.0992   -1.6896 C   0  0  0  0  0  0  0  0  0  0  0  0
    2.7718   -1.0896   -2.3870 C   0  0  0  0  0  0  0  0  0  0  0  0
    3.6691   -1.9221   -1.7199 C   0  0  0  0  0  0  0  0  0  0  0  0
    3.8754   -1.7515   -0.3538 C   0  0  0  0  0  0  0  0  0  0  0  0
    3.1876   -0.7588    0.3427 C   0  0  0  0  0  0  0  0  0  0  0  0
   -0.7867   -3.1421    1.2075 C   0  0  0  0  0  0  0  0  0  0  0  0
   -5.4728    1.1192   -2.6579 H   0  0  0  0  0  0  0  0  0  0  0  0
   -5.9492    1.6755   -1.0567 H   0  0  0  0  0  0  0  0  0  0  0  0
   -4.8704    2.6753   -2.0510 H   0  0  0  0  0  0  0  0  0  0  0  0
   -0.1663    2.2083   -0.3852 H   0  0  0  0  0  0  0  0  0  0  0  0
    2.0172    2.1372    0.1244 H   0  0  0  0  0  0  0  0  0  0  0  0
    2.6028    1.2419    2.2734 H   0  0  0  0  0  0  0  0  0  0  0  0
    1.2416    0.0939    2.2382 H   0  0  0  0  0  0  0  0  0  0  0  0
    0.3826    3.9447    2.5871 H   0  0  0  0  0  0  0  0  0  0  0  0
    1.3813    0.5364   -2.2074 H   0  0  0  0  0  0  0  0  0  0  0  0
    2.6019   -1.2139   -3.4479 H   0  0  0  0  0  0  0  0  0  0  0  0
    4.1984   -2.6961   -2.2582 H   0  0  0  0  0  0  0  0  0  0  0  0
    4.5663   -2.3941    0.1749 H   0  0  0  0  0  0  0  0  0  0  0  0
    3.3522   -0.6559    1.4055 H   0  0  0  0  0  0  0  0  0  0  0  0
   -1.5060   -3.9375    1.0396 H   0  0  0  0  0  0  0  0  0  0  0  0
    0.1780   -3.4098    0.7814 H   0  0  0  0  0  0  0  0  0  0  0  0
   -0.6472   -3.0119    2.2808 H   0  0  0  0  0  0  0  0  0  0  0  0
  1  2  2  0  0  0  0
  2 23  1  0  0  0  0
  3  2  1  0  0  0  0
  4  3  2  0  0  0  0
  5  6  2  0  0  0  0
  5  4  1  0  0  0  0
  6  1  1  0  0  0  0
  7  6  1  0  0  0  0
  8  9  2  0  0  0  0
  8  7  1  0  0  0  0
  9  5  1  0  0  0  0
 10  8  1  0  0  0  0
 10 25  1  0  0  0  0
 11  4  1  0  0  0  0
 11 12  1  0  0  0  0
 12 28  1  6  0  0  0
 12 13  1  0  0  0  0
 13 30  1  0  0  0  0
 13 29  1  0  0  0  0
 13 14  1  0  0  0  0
 14 15  2  0  0  0  0
 16 14  1  0  0  0  0
 16 31  1  0  0  0  0
 17 22  1  0  0  0  0
 17 12  1  0  0  0  0
 18 17  2  0  0  0  0
 19 20  2  0  0  0  0
 19 18  1  0  0  0  0
 20 21  1  0  0  0  0
 21 35  1  0  0  0  0
 21 22  2  0  0  0  0
 22 36  1  0  0  0  0
 23 39  1  0  0  0  0
 24 10  1  0  0  0  0
 26 10  1  0  0  0  0
 27 11  1  0  0  0  0
 32 18  1  0  0  0  0
 33 19  1  0  0  0  0
 34 20  1  0  0  0  0
 37 23  1  0  0  0  0
 38 23  1  0  0  0  0
M  END
