omegapdb_2byh_02.xyz
 OpenBabel11041815263D

 40 42  0  0  0  0  0  0  0  0999 V2000
    5.1115    2.2583    1.0148 O   0  0  0  0  0  0  0  0  0  0  0  0
    3.9633    2.3660    1.4199 C   0  0  0  0  0  0  0  0  0  0  0  0
    3.4963    3.6302    2.1018 C   0  0  0  0  0  0  0  0  0  0  0  0
    2.9831    1.2573    1.2506 C   0  0  0  0  0  0  0  0  0  0  0  0
    1.6616    1.3499    1.7021 C   0  0  0  0  0  0  0  0  0  0  0  0
    0.7810    0.2974    1.5036 C   0  0  0  0  0  0  0  0  0  0  0  0
    1.2025   -0.8727    0.8583 C   0  0  0  0  0  0  0  0  0  0  0  0
    2.5300   -0.9836    0.4244 C   0  0  0  0  0  0  0  0  0  0  0  0
    3.3990    0.0818    0.6188 C   0  0  0  0  0  0  0  0  0  0  0  0
    0.2372   -1.8597    0.6364 N   0  0  0  0  0  0  0  0  0  0  0  0
    0.2567   -2.8225   -0.3598 C   0  0  0  0  0  0  0  0  0  0  0  0
    1.2761   -3.3121   -0.8207 O   0  0  0  0  0  0  0  0  0  0  0  0
   -1.1041   -3.1705   -0.8177 C   0  0  0  0  0  0  0  0  0  0  0  0
   -1.6475   -4.4370   -1.0818 C   0  0  0  0  0  0  0  0  0  0  0  0
   -2.9379   -4.3533   -1.4476 N   0  0  0  0  0  0  0  0  0  0  0  0
   -3.1974   -3.0420   -1.4378 N   0  0  0  0  0  0  0  0  0  0  0  0
   -2.1432   -2.2675   -1.0716 C   0  0  0  0  0  0  0  0  0  0  0  0
   -2.1402   -0.8096   -1.0516 C   0  0  0  0  0  0  0  0  0  0  0  0
   -0.9806   -0.1204   -1.4275 C   0  0  0  0  0  0  0  0  0  0  0  0
   -0.8946    1.2555   -1.2931 C   0  0  0  0  0  0  0  0  0  0  0  0
    0.5580    2.0967   -1.7165 Cl  0  0  0  0  0  0  0  0  0  0  0  0
   -1.9776    1.9955   -0.8080 C   0  0  0  0  0  0  0  0  0  0  0  0
   -1.9379    3.3391   -0.6514 O   0  0  0  0  0  0  0  0  0  0  0  0
   -3.1524    1.3231   -0.4805 C   0  0  0  0  0  0  0  0  0  0  0  0
   -3.2362   -0.0591   -0.6012 C   0  0  0  0  0  0  0  0  0  0  0  0
   -4.3771   -0.7493   -0.2838 O   0  0  0  0  0  0  0  0  0  0  0  0
    3.1531    3.4163    3.1135 H   0  0  0  0  0  0  0  0  0  0  0  0
    4.3231    4.3320    2.1375 H   0  0  0  0  0  0  0  0  0  0  0  0
    2.6625    4.0729    1.5573 H   0  0  0  0  0  0  0  0  0  0  0  0
    1.3084    2.2431    2.1978 H   0  0  0  0  0  0  0  0  0  0  0  0
   -0.2472    0.3802    1.8370 H   0  0  0  0  0  0  0  0  0  0  0  0
    2.8553   -1.8910   -0.0578 H   0  0  0  0  0  0  0  0  0  0  0  0
    4.4247    0.0182    0.2831 H   0  0  0  0  0  0  0  0  0  0  0  0
   -0.6926   -1.5984    0.9286 H   0  0  0  0  0  0  0  0  0  0  0  0
   -1.1694   -5.3976   -1.0017 H   0  0  0  0  0  0  0  0  0  0  0  0
   -4.1241   -2.7155   -1.6602 H   0  0  0  0  0  0  0  0  0  0  0  0
   -0.1345   -0.6657   -1.8230 H   0  0  0  0  0  0  0  0  0  0  0  0
   -1.0651    3.6340   -0.9513 H   0  0  0  0  0  0  0  0  0  0  0  0
   -3.9947    1.9034   -0.1252 H   0  0  0  0  0  0  0  0  0  0  0  0
   -5.0295   -0.1235    0.0504 H   0  0  0  0  0  0  0  0  0  0  0  0
  1  2  2  0  0  0  0
  2  3  1  0  0  0  0
  3 28  1  0  0  0  0
  3 27  1  0  0  0  0
  4  2  1  0  0  0  0
  4  5  2  0  0  0  0
  5 30  1  0  0  0  0
  6  5  1  0  0  0  0
  6 31  1  0  0  0  0
  7  6  2  0  0  0  0
  8  9  2  0  0  0  0
  8  7  1  0  0  0  0
  9  4  1  0  0  0  0
 10  7  1  0  0  0  0
 10 34  1  0  0  0  0
 11 10  1  0  0  0  0
 12 11  2  0  0  0  0
 13 11  1  0  0  0  0
 14 35  1  0  0  0  0
 14 13  1  0  0  0  0
 15 16  1  0  0  0  0
 15 14  2  0  0  0  0
 16 17  1  0  0  0  0
 17 18  1  0  0  0  0
 17 13  2  0  0  0  0
 18 25  2  0  0  0  0
 19 20  2  0  0  0  0
 19 18  1  0  0  0  0
 20 22  1  0  0  0  0
 21 20  1  0  0  0  0
 22 23  1  0  0  0  0
 22 24  2  0  0  0  0
 24 39  1  0  0  0  0
 25 24  1  0  0  0  0
 25 26  1  0  0  0  0
 26 40  1  0  0  0  0
 29  3  1  0  0  0  0
 32  8  1  0  0  0  0
 33  9  1  0  0  0  0
 36 16  1  0  0  0  0
 37 19  1  0  0  0  0
 38 23  1  0  0  0  0
M  END
