omegapdb_1qxw_11.xyz
 OpenBabel11041815263D

 36 36  0  0  1  0  0  0  0  0999 V2000
    3.7242    2.0743    0.4326 C   0  0  0  0  0  0  0  0  0  0  0  0
    4.7769    1.1235    0.9615 C   0  0  0  0  0  0  0  0  0  0  0  0
    3.7446    0.6280    0.0041 C   0  0  0  0  0  0  0  0  0  0  0  0
    2.7515   -0.3007    0.4705 N   0  0  0  0  0  0  0  0  0  0  0  0
    1.4431   -0.0979   -0.1495 C   0  0  0  0  0  0  0  0  0  0  0  0
    0.5635   -1.2747    0.2480 C   0  0  0  0  0  0  0  0  0  0  0  0
   -0.7410   -1.3937   -0.5492 C   0  0  1  0  0  0  0  0  0  0  0  0
   -1.5234   -2.5634   -0.1596 N   0  0  0  0  0  0  0  0  0  0  0  0
   -1.6053   -0.1460   -0.4399 C   0  0  0  0  0  0  0  0  0  0  0  0
   -2.8638   -0.2185   -1.2973 C   0  0  0  0  0  0  0  0  0  0  0  0
   -3.6764    1.0734   -1.2787 C   0  0  0  0  0  0  0  0  0  0  0  0
   -4.2439    1.4081    0.0962 C   0  0  0  0  0  0  0  0  0  0  0  0
    1.2676   -2.4728    0.0436 O   0  0  0  0  0  0  0  0  0  0  0  0
    0.3101   -1.0914    1.6405 O   0  0  0  0  0  0  0  0  0  0  0  0
    4.0289    2.8324   -0.2724 H   0  0  0  0  0  0  0  0  0  0  0  0
    2.9426    2.3670    1.1185 H   0  0  0  0  0  0  0  0  0  0  0  0
    5.7907    1.2343    0.6109 H   0  0  0  0  0  0  0  0  0  0  0  0
    4.6837    0.8072    1.9902 H   0  0  0  0  0  0  0  0  0  0  0  0
    4.0698    0.4251   -1.0073 H   0  0  0  0  0  0  0  0  0  0  0  0
    2.6384   -0.2077    1.4752 H   0  0  0  0  0  0  0  0  0  0  0  0
    1.5735   -0.1016   -1.2325 H   0  0  0  0  0  0  0  0  0  0  0  0
    0.9752    0.8445    0.1443 H   0  0  0  0  0  0  0  0  0  0  0  0
   -0.4464   -1.5367   -1.5926 H   0  0  0  0  0  0  0  0  0  0  0  0
   -1.8828   -2.4285    0.7794 H   0  0  0  0  0  0  0  0  0  0  0  0
   -0.9198   -3.3773   -0.1360 H   0  0  0  0  0  0  0  0  0  0  0  0
   -1.0245    0.7269   -0.7473 H   0  0  0  0  0  0  0  0  0  0  0  0
   -1.8574    0.0021    0.6123 H   0  0  0  0  0  0  0  0  0  0  0  0
   -3.4844   -1.0505   -0.9638 H   0  0  0  0  0  0  0  0  0  0  0  0
   -2.5716   -0.4483   -2.3251 H   0  0  0  0  0  0  0  0  0  0  0  0
   -3.0522    1.8997   -1.6285 H   0  0  0  0  0  0  0  0  0  0  0  0
   -4.4977    0.9844   -1.9918 H   0  0  0  0  0  0  0  0  0  0  0  0
   -4.8443    0.5798    0.4739 H   0  0  0  0  0  0  0  0  0  0  0  0
   -3.4549    1.6036    0.8203 H   0  0  0  0  0  0  0  0  0  0  0  0
   -4.8803    2.2910    0.0573 H   0  0  0  0  0  0  0  0  0  0  0  0
    2.1936   -2.2261    0.2247 H   0  0  0  0  0  0  0  0  0  0  0  0
    0.0924   -1.9694    1.9745 H   0  0  0  0  0  0  0  0  0  0  0  0
  1  2  1  0  0  0  0
  1 16  1  0  0  0  0
  2 18  1  0  0  0  0
  3  1  1  0  0  0  0
  3  4  1  0  0  0  0
  3  2  1  0  0  0  0
  4 20  1  0  0  0  0
  5 22  1  0  0  0  0
  5  6  1  0  0  0  0
  5  4  1  0  0  0  0
  6 14  1  0  0  0  0
  7 23  1  6  0  0  0
  7  9  1  0  0  0  0
  7  8  1  0  0  0  0
  7  6  1  0  0  0  0
  8 25  1  0  0  0  0
  8 24  1  0  0  0  0
  9 27  1  0  0  0  0
 10 11  1  0  0  0  0
 10 28  1  0  0  0  0
 10  9  1  0  0  0  0
 11 12  1  0  0  0  0
 12 32  1  0  0  0  0
 12 33  1  0  0  0  0
 13 35  1  0  0  0  0
 13  6  1  0  0  0  0
 14 36  1  0  0  0  0
 15  1  1  0  0  0  0
 17  2  1  0  0  0  0
 19  3  1  0  0  0  0
 21  5  1  0  0  0  0
 26  9  1  0  0  0  0
 29 10  1  0  0  0  0
 30 11  1  0  0  0  0
 31 11  1  0  0  0  0
 34 12  1  0  0  0  0
M  END
