omegapdb_1m5f_17.xyz
 OpenBabel11041815263D

 25 25  0  0  1  0  0  0  0  0999 V2000
   -0.2863   -3.1724    0.2163 O   0  0  0  0  0  0  0  0  0  0  0  0
   -0.5414   -2.5666   -0.9673 C   0  0  0  0  0  0  0  0  0  0  0  0
   -0.3155   -3.0778   -2.0381 O   0  0  0  0  0  0  0  0  0  0  0  0
   -1.1309   -1.2250   -0.7593 C   0  0  0  0  0  0  0  0  0  0  0  0
   -2.1265   -0.8548   -1.5610 N   0  0  0  0  0  0  0  0  0  0  0  0
   -2.4853    0.3942   -1.1200 O   0  0  0  0  0  0  0  0  0  0  0  0
   -1.7043    0.7688   -0.0806 C   0  0  0  0  0  0  0  0  0  0  0  0
   -0.8148   -0.2362    0.2053 C   0  0  0  0  0  0  0  0  0  0  0  0
    0.3023   -0.2364    1.1927 C   0  0  0  0  0  0  0  0  0  0  0  0
    1.5210    0.5475    0.6652 C   0  0  2  0  0  0  0  0  0  0  0  0
    1.2348    1.9721    0.6269 N   0  0  0  0  0  0  0  0  0  0  0  0
    1.8795    0.0932   -0.7334 C   0  0  0  0  0  0  0  0  0  0  0  0
    2.0291    0.8252   -1.6831 O   0  0  0  0  0  0  0  0  0  0  0  0
    2.0278   -1.2475   -0.7966 O   0  0  0  0  0  0  0  0  0  0  0  0
   -1.9899    2.0999    0.5025 C   0  0  0  0  0  0  0  0  0  0  0  0
    0.1135   -4.0250   -0.0151 H   0  0  0  0  0  0  0  0  0  0  0  0
   -0.0108    0.2409    2.1219 H   0  0  0  0  0  0  0  0  0  0  0  0
    0.5882   -1.2599    1.4215 H   0  0  0  0  0  0  0  0  0  0  0  0
    2.3812    0.2928    1.2948 H   0  0  0  0  0  0  0  0  0  0  0  0
    1.5886    2.4263    1.4576 H   0  0  0  0  0  0  0  0  0  0  0  0
    1.6992    2.3818   -0.1753 H   0  0  0  0  0  0  0  0  0  0  0  0
    2.2084   -1.4552   -1.7276 H   0  0  0  0  0  0  0  0  0  0  0  0
   -3.0637    2.2310    0.6253 H   0  0  0  0  0  0  0  0  0  0  0  0
   -1.6081    2.8926   -0.1377 H   0  0  0  0  0  0  0  0  0  0  0  0
   -1.4965    2.1907    1.4650 H   0  0  0  0  0  0  0  0  0  0  0  0
  2  4  1  0  0  0  0
  2  1  1  0  0  0  0
  3  2  2  0  0  0  0
  4  8  1  0  0  0  0
  5  6  1  0  0  0  0
  5  4  2  0  0  0  0
  6  7  1  0  0  0  0
  7  8  2  0  0  0  0
  7 15  1  0  0  0  0
  8  9  1  0  0  0  0
  9 18  1  0  0  0  0
  9 17  1  0  0  0  0
 10  9  1  0  0  0  0
 10 19  1  1  0  0  0
 11 10  1  0  0  0  0
 11 20  1  0  0  0  0
 12 10  1  0  0  0  0
 13 12  2  0  0  0  0
 14 12  1  0  0  0  0
 15 23  1  0  0  0  0
 15 25  1  0  0  0  0
 16  1  1  0  0  0  0
 21 11  1  0  0  0  0
 22 14  1  0  0  0  0
 24 15  1  0  0  0  0
M  END
