omegapdb_1m5f_15.xyz
 OpenBabel11041815263D

 25 25  0  0  1  0  0  0  0  0999 V2000
   -0.1448   -2.4944   -1.4349 O   0  0  0  0  0  0  0  0  0  0  0  0
   -1.4377   -2.1074   -1.5850 C   0  0  0  0  0  0  0  0  0  0  0  0
   -2.2141   -2.6683   -2.3174 O   0  0  0  0  0  0  0  0  0  0  0  0
   -1.7499   -0.9308   -0.7418 C   0  0  0  0  0  0  0  0  0  0  0  0
   -2.9866   -0.4346   -0.8430 N   0  0  0  0  0  0  0  0  0  0  0  0
   -3.0213    0.6149    0.0368 O   0  0  0  0  0  0  0  0  0  0  0  0
   -1.8292    0.7439    0.6571 C   0  0  0  0  0  0  0  0  0  0  0  0
   -0.9652   -0.2219    0.2041 C   0  0  0  0  0  0  0  0  0  0  0  0
    0.4575   -0.3804    0.6187 C   0  0  0  0  0  0  0  0  0  0  0  0
    1.3714    0.6054   -0.1522 C   0  0  2  0  0  0  0  0  0  0  0  0
    1.3564    0.4833   -1.5949 N   0  0  0  0  0  0  0  0  0  0  0  0
    2.7777    0.3550    0.3322 C   0  0  0  0  0  0  0  0  0  0  0  0
    3.5642   -0.3983   -0.1906 O   0  0  0  0  0  0  0  0  0  0  0  0
    3.0352    1.0216    1.4809 O   0  0  0  0  0  0  0  0  0  0  0  0
   -1.6987    1.8423    1.6430 C   0  0  0  0  0  0  0  0  0  0  0  0
   -0.0465   -3.2701   -2.0092 H   0  0  0  0  0  0  0  0  0  0  0  0
    0.7958   -1.3959    0.4268 H   0  0  0  0  0  0  0  0  0  0  0  0
    0.5515   -0.1874    1.6890 H   0  0  0  0  0  0  0  0  0  0  0  0
    1.0858    1.6214    0.1220 H   0  0  0  0  0  0  0  0  0  0  0  0
    1.7584   -0.4109   -1.8515 H   0  0  0  0  0  0  0  0  0  0  0  0
    0.3996    0.4896   -1.9273 H   0  0  0  0  0  0  0  0  0  0  0  0
    3.9280    0.7517    1.7460 H   0  0  0  0  0  0  0  0  0  0  0  0
   -0.7615    1.7397    2.1847 H   0  0  0  0  0  0  0  0  0  0  0  0
   -2.5204    1.8182    2.3564 H   0  0  0  0  0  0  0  0  0  0  0  0
   -1.7057    2.8136    1.1499 H   0  0  0  0  0  0  0  0  0  0  0  0
  2  1  1  0  0  0  0
  2  4  1  0  0  0  0
  3  2  2  0  0  0  0
  4  8  1  0  0  0  0
  5  4  2  0  0  0  0
  5  6  1  0  0  0  0
  6  7  1  0  0  0  0
  7 15  1  0  0  0  0
  8  9  1  0  0  0  0
  8  7  2  0  0  0  0
  9 18  1  0  0  0  0
 10 19  1  1  0  0  0
 10 12  1  0  0  0  0
 10  9  1  0  0  0  0
 11 10  1  0  0  0  0
 12 14  1  0  0  0  0
 13 12  2  0  0  0  0
 14 22  1  0  0  0  0
 15 23  1  0  0  0  0
 15 24  1  0  0  0  0
 16  1  1  0  0  0  0
 17  9  1  0  0  0  0
 20 11  1  0  0  0  0
 21 11  1  0  0  0  0
 25 15  1  0  0  0  0
M  END
