omegacsd_FIBREN_11.xyz
 OpenBabel11041815263D

 39 41  0  0  1  0  0  0  0  0999 V2000
   -2.5212   -1.6918    0.8353 N   0  0  0  0  0  0  0  0  0  0  0  0
   -1.2238   -1.6119    1.1714 C   0  0  0  0  0  0  0  0  0  0  0  0
   -0.3371   -0.6730    0.7791 N   0  0  0  0  0  0  0  0  0  0  0  0
   -0.7367    0.3056   -0.0399 C   0  0  0  0  0  0  0  0  0  0  0  0
   -2.0783    0.3271   -0.4469 C   0  0  0  0  0  0  0  0  0  0  0  0
   -2.8692   -0.6954    0.0381 C   0  0  0  0  0  0  0  0  0  0  0  0
   -4.1267   -0.5068   -0.4713 O   0  0  0  0  0  0  0  0  0  0  0  0
   -4.0077    0.6261   -1.2334 C   0  0  0  0  0  0  0  0  0  0  0  0
   -2.8186    1.1668   -1.2618 N   0  0  0  0  0  0  0  0  0  0  0  0
   -5.2325    1.0894   -1.9202 C   0  0  0  0  0  0  0  0  0  0  0  0
    0.1571    1.2290   -0.4703 N   0  0  0  0  0  0  0  0  0  0  0  0
    1.5472    1.2519   -0.0443 C   0  0  1  0  0  0  0  0  0  0  0  0
    1.6652    1.5857    1.4468 C   0  0  0  0  0  0  0  0  0  0  0  0
    0.8169    2.7733    1.7991 C   0  0  0  0  0  0  0  0  0  0  0  0
    0.0095    2.8293    2.6950 O   0  0  0  0  0  0  0  0  0  0  0  0
    1.0637    3.8264    0.9727 O   0  0  0  0  0  0  0  0  0  0  0  0
    2.2609   -0.0289   -0.4355 C   0  0  0  0  0  0  0  0  0  0  0  0
    2.0096   -0.5835   -1.6936 C   0  0  0  0  0  0  0  0  0  0  0  0
    2.6644   -1.7389   -2.1073 C   0  0  0  0  0  0  0  0  0  0  0  0
    3.5880   -2.3584   -1.2667 C   0  0  0  0  0  0  0  0  0  0  0  0
    3.8495   -1.8094   -0.0145 C   0  0  0  0  0  0  0  0  0  0  0  0
    3.1907   -0.6518    0.3977 C   0  0  0  0  0  0  0  0  0  0  0  0
   -0.6899   -2.6604    2.0961 C   0  0  0  0  0  0  0  0  0  0  0  0
   -5.6065    0.3190   -2.5922 H   0  0  0  0  0  0  0  0  0  0  0  0
   -4.9997    1.9845   -2.4873 H   0  0  0  0  0  0  0  0  0  0  0  0
   -6.0139    1.3105   -1.1953 H   0  0  0  0  0  0  0  0  0  0  0  0
   -0.2107    2.0076   -0.9915 H   0  0  0  0  0  0  0  0  0  0  0  0
    1.9979    2.0732   -0.6036 H   0  0  0  0  0  0  0  0  0  0  0  0
    2.7018    1.8264    1.6877 H   0  0  0  0  0  0  0  0  0  0  0  0
    1.3364    0.7467    2.0523 H   0  0  0  0  0  0  0  0  0  0  0  0
    0.4806    4.5356    1.2838 H   0  0  0  0  0  0  0  0  0  0  0  0
    1.2821   -0.1126   -2.3423 H   0  0  0  0  0  0  0  0  0  0  0  0
    2.4511   -2.1568   -3.0819 H   0  0  0  0  0  0  0  0  0  0  0  0
    4.0952   -3.2593   -1.5834 H   0  0  0  0  0  0  0  0  0  0  0  0
    4.5612   -2.2832    0.6479 H   0  0  0  0  0  0  0  0  0  0  0  0
    3.3990   -0.2548    1.3808 H   0  0  0  0  0  0  0  0  0  0  0  0
   -1.3892   -3.4878    2.1661 H   0  0  0  0  0  0  0  0  0  0  0  0
    0.2775   -3.0113    1.7430 H   0  0  0  0  0  0  0  0  0  0  0  0
   -0.5443   -2.2381    3.0908 H   0  0  0  0  0  0  0  0  0  0  0  0
  1  2  1  0  0  0  0
  2 23  1  0  0  0  0
  3  2  2  0  0  0  0
  4  3  1  0  0  0  0
  5  4  2  0  0  0  0
  5  6  1  0  0  0  0
  6  1  2  0  0  0  0
  7  6  1  0  0  0  0
  8  7  1  0  0  0  0
  9  8  2  0  0  0  0
  9  5  1  0  0  0  0
 10  8  1  0  0  0  0
 10 26  1  0  0  0  0
 11 12  1  0  0  0  0
 11  4  1  0  0  0  0
 12 28  1  6  0  0  0
 12 13  1  0  0  0  0
 13 29  1  0  0  0  0
 13 14  1  0  0  0  0
 13 30  1  0  0  0  0
 14 15  2  0  0  0  0
 16 31  1  0  0  0  0
 16 14  1  0  0  0  0
 17 12  1  0  0  0  0
 17 22  2  0  0  0  0
 18 17  1  0  0  0  0
 19 18  2  0  0  0  0
 19 20  1  0  0  0  0
 20 21  2  0  0  0  0
 21 22  1  0  0  0  0
 21 35  1  0  0  0  0
 22 36  1  0  0  0  0
 23 37  1  0  0  0  0
 23 39  1  0  0  0  0
 24 10  1  0  0  0  0
 25 10  1  0  0  0  0
 27 11  1  0  0  0  0
 32 18  1  0  0  0  0
 33 19  1  0  0  0  0
 34 20  1  0  0  0  0
 38 23  1  0  0  0  0
M  END
