omegapdb_1m5f_22.xyz
 OpenBabel11041815263D

 25 25  0  0  1  0  0  0  0  0999 V2000
   -0.4250   -2.1530   -2.2286 O   0  0  0  0  0  0  0  0  0  0  0  0
   -0.8606   -2.4893   -0.9845 C   0  0  0  0  0  0  0  0  0  0  0  0
   -0.9177   -3.6274   -0.5922 O   0  0  0  0  0  0  0  0  0  0  0  0
   -1.3021   -1.2920   -0.2358 C   0  0  0  0  0  0  0  0  0  0  0  0
   -2.3353   -1.4319    0.5896 N   0  0  0  0  0  0  0  0  0  0  0  0
   -2.5560   -0.1743    1.0995 O   0  0  0  0  0  0  0  0  0  0  0  0
   -1.6602    0.6984    0.5854 C   0  0  0  0  0  0  0  0  0  0  0  0
   -0.8283    0.0427   -0.2853 C   0  0  0  0  0  0  0  0  0  0  0  0
    0.3511    0.5864   -1.0133 C   0  0  0  0  0  0  0  0  0  0  0  0
    1.6656    0.1737   -0.3261 C   0  0  2  0  0  0  0  0  0  0  0  0
    1.7796   -1.2716   -0.2735 N   0  0  0  0  0  0  0  0  0  0  0  0
    1.7350    0.7050    1.0879 C   0  0  0  0  0  0  0  0  0  0  0  0
    2.0301    0.0572    2.0637 O   0  0  0  0  0  0  0  0  0  0  0  0
    1.4655    2.0310    1.1375 O   0  0  0  0  0  0  0  0  0  0  0  0
   -1.7841    2.1045    1.0380 C   0  0  0  0  0  0  0  0  0  0  0  0
   -0.1930   -2.9986   -2.6420 H   0  0  0  0  0  0  0  0  0  0  0  0
    0.3708    0.1985   -2.0301 H   0  0  0  0  0  0  0  0  0  0  0  0
    0.2973    1.6725   -1.0687 H   0  0  0  0  0  0  0  0  0  0  0  0
    2.4878    0.6670   -0.8600 H   0  0  0  0  0  0  0  0  0  0  0  0
    2.3453   -1.5423    0.5215 H   0  0  0  0  0  0  0  0  0  0  0  0
    2.2088   -1.6287   -1.1156 H   0  0  0  0  0  0  0  0  0  0  0  0
    1.5735    2.2807    2.0682 H   0  0  0  0  0  0  0  0  0  0  0  0
   -2.7951    2.4701    0.8661 H   0  0  0  0  0  0  0  0  0  0  0  0
   -1.5705    2.1905    2.1027 H   0  0  0  0  0  0  0  0  0  0  0  0
   -1.0822    2.7309    0.4959 H   0  0  0  0  0  0  0  0  0  0  0  0
  1  2  1  0  0  0  0
  2  3  2  0  0  0  0
  2  4  1  0  0  0  0
  4  5  2  0  0  0  0
  5  6  1  0  0  0  0
  7 15  1  0  0  0  0
  7  6  1  0  0  0  0
  8  4  1  0  0  0  0
  8  7  2  0  0  0  0
  9 10  1  0  0  0  0
  9  8  1  0  0  0  0
 10 19  1  6  0  0  0
 10 11  1  0  0  0  0
 10 12  1  0  0  0  0
 11 20  1  0  0  0  0
 12 14  1  0  0  0  0
 12 13  2  0  0  0  0
 14 22  1  0  0  0  0
 15 24  1  0  0  0  0
 16  1  1  0  0  0  0
 17  9  1  0  0  0  0
 18  9  1  0  0  0  0
 21 11  1  0  0  0  0
 23 15  1  0  0  0  0
 25 15  1  0  0  0  0
M  END
