omegapdb_1m5f_10.xyz
 OpenBabel11041815263D

 25 25  0  0  1  0  0  0  0  0999 V2000
   -1.5642   -3.7821   -0.6109 O   0  0  0  0  0  0  0  0  0  0  0  0
   -0.7613   -2.7069   -0.6892 C   0  0  0  0  0  0  0  0  0  0  0  0
    0.4013   -2.7907   -1.0121 O   0  0  0  0  0  0  0  0  0  0  0  0
   -1.4094   -1.4240   -0.3400 C   0  0  0  0  0  0  0  0  0  0  0  0
   -2.6681   -1.4390    0.0937 N   0  0  0  0  0  0  0  0  0  0  0  0
   -2.9795   -0.1345    0.3567 O   0  0  0  0  0  0  0  0  0  0  0  0
   -1.9090    0.6533    0.0823 C   0  0  0  0  0  0  0  0  0  0  0  0
   -0.8748   -0.1180   -0.3789 C   0  0  0  0  0  0  0  0  0  0  0  0
    0.4963    0.3072   -0.7632 C   0  0  0  0  0  0  0  0  0  0  0  0
    1.4611    0.1600    0.4275 C   0  0  2  0  0  0  0  0  0  0  0  0
    1.0267    1.0191    1.5169 N   0  0  0  0  0  0  0  0  0  0  0  0
    2.8511    0.5054   -0.0680 C   0  0  0  0  0  0  0  0  0  0  0  0
    3.3822    1.5835    0.0843 O   0  0  0  0  0  0  0  0  0  0  0  0
    3.4128   -0.5114   -0.7494 O   0  0  0  0  0  0  0  0  0  0  0  0
   -2.0633    2.0992    0.3547 C   0  0  0  0  0  0  0  0  0  0  0  0
   -2.4382   -3.4716   -0.3215 H   0  0  0  0  0  0  0  0  0  0  0  0
    0.8559   -0.2961   -1.5943 H   0  0  0  0  0  0  0  0  0  0  0  0
    0.4899    1.3557   -1.0693 H   0  0  0  0  0  0  0  0  0  0  0  0
    1.4490   -0.8829    0.7408 H   0  0  0  0  0  0  0  0  0  0  0  0
    1.4113    1.9449    1.3512 H   0  0  0  0  0  0  0  0  0  0  0  0
    1.4475    0.7068    2.3835 H   0  0  0  0  0  0  0  0  0  0  0  0
    4.2666   -0.1810   -1.0690 H   0  0  0  0  0  0  0  0  0  0  0  0
   -1.2983    2.6552   -0.1810 H   0  0  0  0  0  0  0  0  0  0  0  0
   -1.9416    2.3006    1.4176 H   0  0  0  0  0  0  0  0  0  0  0  0
   -3.0440    2.4476    0.0376 H   0  0  0  0  0  0  0  0  0  0  0  0
  1 16  1  0  0  0  0
  2  1  1  0  0  0  0
  2  4  1  0  0  0  0
  3  2  2  0  0  0  0
  4  5  2  0  0  0  0
  5  6  1  0  0  0  0
  7 15  1  0  0  0  0
  7  6  1  0  0  0  0
  8  4  1  0  0  0  0
  8  7  2  0  0  0  0
  9  8  1  0  0  0  0
  9 10  1  0  0  0  0
 10 19  1  1  0  0  0
 10 11  1  0  0  0  0
 11 21  1  0  0  0  0
 12 13  2  0  0  0  0
 12 10  1  0  0  0  0
 14 12  1  0  0  0  0
 15 24  1  0  0  0  0
 17  9  1  0  0  0  0
 18  9  1  0  0  0  0
 20 11  1  0  0  0  0
 22 14  1  0  0  0  0
 23 15  1  0  0  0  0
 25 15  1  0  0  0  0
M  END
