omegacsd_SEYMIS_11.xyz
 OpenBabel11041815263D

 45 47  0  0  0  0  0  0  0  0999 V2000
   -4.9099   -1.7265    0.9841 O   0  0  0  0  0  0  0  0  0  0  0  0
   -5.2637   -0.9418   -0.0914 N   0  0  0  0  0  0  0  0  0  0  0  0
   -4.1276   -0.5422   -0.6539 C   0  0  0  0  0  0  0  0  0  0  0  0
   -3.0088   -1.0589    0.0626 C   0  0  0  0  0  0  0  0  0  0  0  0
   -1.5530   -0.8910   -0.1843 C   0  0  0  0  0  0  0  0  0  0  0  0
   -0.9879   -1.2720   -1.2004 O   0  0  0  0  0  0  0  0  0  0  0  0
   -0.9128   -0.2922    0.8649 N   0  0  0  0  0  0  0  0  0  0  0  0
    0.4574   -0.0266    0.9393 C   0  0  0  0  0  0  0  0  0  0  0  0
    1.0533    0.6251    2.0190 C   0  0  0  0  0  0  0  0  0  0  0  0
    2.3929    0.7174    1.7792 N   0  0  0  0  0  0  0  0  0  0  0  0
    3.3125    1.3531    2.7096 C   0  0  0  0  0  0  0  0  0  0  0  0
    2.6658    0.1343    0.5648 C   0  0  0  0  0  0  0  0  0  0  0  0
    1.4693   -0.3384    0.0201 C   0  0  0  0  0  0  0  0  0  0  0  0
    3.9707    0.0152   -0.0777 C   0  0  0  0  0  0  0  0  0  0  0  0
    4.1410   -0.5031   -1.1616 O   0  0  0  0  0  0  0  0  0  0  0  0
    4.9730    0.5490    0.6666 O   0  0  0  0  0  0  0  0  0  0  0  0
    6.2844    0.4331    0.0745 C   0  0  0  0  0  0  0  0  0  0  0  0
    6.8803   -0.9314    0.3374 C   0  0  0  0  0  0  0  0  0  0  0  0
   -3.5649   -1.7901    1.0767 C   0  0  0  0  0  0  0  0  0  0  0  0
   -3.0038   -2.6212    2.1690 C   0  0  0  0  0  0  0  0  0  0  0  0
   -4.1802    0.3528   -1.8135 C   0  0  0  0  0  0  0  0  0  0  0  0
   -5.2377    1.2639   -1.9282 C   0  0  0  0  0  0  0  0  0  0  0  0
   -5.3124    2.1109   -3.0284 C   0  0  0  0  0  0  0  0  0  0  0  0
   -4.3327    2.0628   -4.0195 C   0  0  0  0  0  0  0  0  0  0  0  0
   -3.2800    1.1571   -3.9055 C   0  0  0  0  0  0  0  0  0  0  0  0
   -3.1990    0.3009   -2.8104 C   0  0  0  0  0  0  0  0  0  0  0  0
   -1.4979    0.0602    1.6046 H   0  0  0  0  0  0  0  0  0  0  0  0
    0.6251    1.0260    2.9223 H   0  0  0  0  0  0  0  0  0  0  0  0
    2.7290    1.7035    3.5559 H   0  0  0  0  0  0  0  0  0  0  0  0
    4.0615    0.6449    3.0492 H   0  0  0  0  0  0  0  0  0  0  0  0
    3.8122    2.1925    2.2370 H   0  0  0  0  0  0  0  0  0  0  0  0
    1.3702   -0.8372   -0.9247 H   0  0  0  0  0  0  0  0  0  0  0  0
    6.2061    0.6304   -0.9917 H   0  0  0  0  0  0  0  0  0  0  0  0
    6.8641    1.2199    0.5496 H   0  0  0  0  0  0  0  0  0  0  0  0
    6.9249   -1.1295    1.4063 H   0  0  0  0  0  0  0  0  0  0  0  0
    7.8927   -0.9741   -0.0624 H   0  0  0  0  0  0  0  0  0  0  0  0
    6.2869   -1.7032   -0.1449 H   0  0  0  0  0  0  0  0  0  0  0  0
   -1.9192   -2.6363    2.0981 H   0  0  0  0  0  0  0  0  0  0  0  0
   -3.3725   -3.6430    2.0963 H   0  0  0  0  0  0  0  0  0  0  0  0
   -3.2882   -2.2301    3.1452 H   0  0  0  0  0  0  0  0  0  0  0  0
   -5.9888    1.2984   -1.1513 H   0  0  0  0  0  0  0  0  0  0  0  0
   -6.1313    2.8127   -3.1094 H   0  0  0  0  0  0  0  0  0  0  0  0
   -4.3897    2.7255   -4.8721 H   0  0  0  0  0  0  0  0  0  0  0  0
   -2.5200    1.1106   -4.6735 H   0  0  0  0  0  0  0  0  0  0  0  0
   -2.3911   -0.4118   -2.7283 H   0  0  0  0  0  0  0  0  0  0  0  0
  1 19  1  0  0  0  0
  2  1  1  0  0  0  0
  3  2  2  0  0  0  0
  3  4  1  0  0  0  0
  4 19  2  0  0  0  0
  5  4  1  0  0  0  0
  5  7  1  0  0  0  0
  6  5  2  0  0  0  0
  7  8  1  0  0  0  0
  7 27  1  0  0  0  0
  8  9  2  0  0  0  0
  9 28  1  0  0  0  0
 10  9  1  0  0  0  0
 10 11  1  0  0  0  0
 11 30  1  0  0  0  0
 11 29  1  0  0  0  0
 12 10  1  0  0  0  0
 13 12  2  0  0  0  0
 13  8  1  0  0  0  0
 14 12  1  0  0  0  0
 14 16  1  0  0  0  0
 15 14  2  0  0  0  0
 17 18  1  0  0  0  0
 17 34  1  0  0  0  0
 17 16  1  0  0  0  0
 18 35  1  0  0  0  0
 19 20  1  0  0  0  0
 20 40  1  0  0  0  0
 21  3  1  0  0  0  0
 22 21  1  0  0  0  0
 22 41  1  0  0  0  0
 23 22  2  0  0  0  0
 24 25  2  0  0  0  0
 24 23  1  0  0  0  0
 25 26  1  0  0  0  0
 26 45  1  0  0  0  0
 26 21  2  0  0  0  0
 31 11  1  0  0  0  0
 32 13  1  0  0  0  0
 33 17  1  0  0  0  0
 36 18  1  0  0  0  0
 37 18  1  0  0  0  0
 38 20  1  0  0  0  0
 39 20  1  0  0  0  0
 42 23  1  0  0  0  0
 43 24  1  0  0  0  0
 44 25  1  0  0  0  0
M  END
