omegapdb_1qxw_08.xyz
 OpenBabel11041815263D

 36 36  0  0  1  0  0  0  0  0999 V2000
    4.1148    1.3998    0.5349 C   0  0  0  0  0  0  0  0  0  0  0  0
    3.9966    1.5599   -0.9664 C   0  0  0  0  0  0  0  0  0  0  0  0
    2.7620    1.4427   -0.1361 C   0  0  0  0  0  0  0  0  0  0  0  0
    1.9495    0.2655   -0.2545 N   0  0  0  0  0  0  0  0  0  0  0  0
    1.3636   -0.1338    1.0148 C   0  0  0  0  0  0  0  0  0  0  0  0
    0.5854   -1.4267    0.8586 C   0  0  0  0  0  0  0  0  0  0  0  0
   -0.5106   -1.3884   -0.2118 C   0  0  1  0  0  0  0  0  0  0  0  0
   -0.9497   -2.7803   -0.3633 N   0  0  0  0  0  0  0  0  0  0  0  0
   -1.6107   -0.3814    0.0992 C   0  0  0  0  0  0  0  0  0  0  0  0
   -2.6736   -0.3105   -0.9902 C   0  0  0  0  0  0  0  0  0  0  0  0
   -3.7801    0.6997   -0.6945 C   0  0  0  0  0  0  0  0  0  0  0  0
   -3.2875    2.1412   -0.6438 C   0  0  0  0  0  0  0  0  0  0  0  0
    1.5202   -2.4195    0.5233 O   0  0  0  0  0  0  0  0  0  0  0  0
   -0.0678   -1.7511    2.0795 O   0  0  0  0  0  0  0  0  0  0  0  0
    4.4419    2.2496    1.1144 H   0  0  0  0  0  0  0  0  0  0  0  0
    4.4434    0.4364    0.8969 H   0  0  0  0  0  0  0  0  0  0  0  0
    4.2362    2.5180   -1.4000 H   0  0  0  0  0  0  0  0  0  0  0  0
    4.2592    0.7069   -1.5750 H   0  0  0  0  0  0  0  0  0  0  0  0
    2.1833    2.3460    0.0057 H   0  0  0  0  0  0  0  0  0  0  0  0
    2.5136   -0.5083   -0.5917 H   0  0  0  0  0  0  0  0  0  0  0  0
    2.1140   -0.2987    1.8019 H   0  0  0  0  0  0  0  0  0  0  0  0
    0.6932    0.6500    1.3646 H   0  0  0  0  0  0  0  0  0  0  0  0
   -0.0173   -1.0977   -1.1397 H   0  0  0  0  0  0  0  0  0  0  0  0
   -1.5441   -3.0308    0.4191 H   0  0  0  0  0  0  0  0  0  0  0  0
   -1.4909   -2.8969   -1.2087 H   0  0  0  0  0  0  0  0  0  0  0  0
   -1.1504    0.6002    0.2160 H   0  0  0  0  0  0  0  0  0  0  0  0
   -2.0714   -0.6389    1.0564 H   0  0  0  0  0  0  0  0  0  0  0  0
   -3.1257   -1.2960   -1.1205 H   0  0  0  0  0  0  0  0  0  0  0  0
   -2.1972   -0.0536   -1.9417 H   0  0  0  0  0  0  0  0  0  0  0  0
   -4.5523    0.6130   -1.4609 H   0  0  0  0  0  0  0  0  0  0  0  0
   -4.2554    0.4400    0.2543 H   0  0  0  0  0  0  0  0  0  0  0  0
   -4.1164    2.8349   -0.5125 H   0  0  0  0  0  0  0  0  0  0  0  0
   -2.7739    2.4047   -1.5689 H   0  0  0  0  0  0  0  0  0  0  0  0
   -2.5929    2.3008    0.1788 H   0  0  0  0  0  0  0  0  0  0  0  0
    0.9658   -3.1086    0.1099 H   0  0  0  0  0  0  0  0  0  0  0  0
    0.6253   -2.0884    2.6590 H   0  0  0  0  0  0  0  0  0  0  0  0
  1 16  1  0  0  0  0
  1 15  1  0  0  0  0
  2  3  1  0  0  0  0
  2  1  1  0  0  0  0
  3 19  1  0  0  0  0
  3  1  1  0  0  0  0
  4  3  1  0  0  0  0
  4  5  1  0  0  0  0
  5 22  1  0  0  0  0
  5 21  1  0  0  0  0
  6  5  1  0  0  0  0
  6 14  1  0  0  0  0
  7 23  1  6  0  0  0
  7  9  1  0  0  0  0
  7  6  1  0  0  0  0
  8  7  1  0  0  0  0
  8 24  1  0  0  0  0
  9 26  1  0  0  0  0
  9 27  1  0  0  0  0
 10 11  1  0  0  0  0
 10  9  1  0  0  0  0
 11 12  1  0  0  0  0
 11 31  1  0  0  0  0
 12 32  1  0  0  0  0
 12 34  1  0  0  0  0
 13  6  1  0  0  0  0
 14 36  1  0  0  0  0
 17  2  1  0  0  0  0
 18  2  1  0  0  0  0
 20  4  1  0  0  0  0
 25  8  1  0  0  0  0
 28 10  1  0  0  0  0
 29 10  1  0  0  0  0
 30 11  1  0  0  0  0
 33 12  1  0  0  0  0
 35 13  1  0  0  0  0
M  END
