omegapdb_1xom_21.xyz
 OpenBabel11041815263D

 50 52  0  0  1  0  0  0  0  0999 V2000
    5.1722    3.3226   -0.0977 O   0  0  0  0  0  0  0  0  0  0  0  0
    4.9706    2.0123   -0.4056 C   0  0  0  0  0  0  0  0  0  0  0  0
    5.4940    1.5382   -1.3816 O   0  0  0  0  0  0  0  0  0  0  0  0
    4.0073    1.2726    0.5024 C   0  0  1  0  0  0  0  0  0  0  0  0
    2.5691    1.5530    0.0016 C   0  0  0  0  0  0  0  0  0  0  0  0
    2.2032    0.5624   -1.0973 C   0  0  0  0  0  0  0  0  0  0  0  0
    2.0867   -0.8780   -0.5296 C   0  0  2  0  0  0  0  0  0  0  0  0
    3.0073   -1.0178    0.7151 C   0  0  0  0  0  0  0  0  0  0  0  0
    4.2953   -0.2342    0.5106 C   0  0  0  0  0  0  0  0  0  0  0  0
    2.5733   -1.8078   -1.5506 C   0  0  0  0  0  0  0  0  0  0  0  0
    2.9867   -2.5551   -2.3547 N   0  0  0  0  0  0  0  0  0  0  0  0
    0.6718   -1.2701   -0.1390 C   0  0  0  0  0  0  0  0  0  0  0  0
    0.3114   -2.6140   -0.0511 C   0  0  0  0  0  0  0  0  0  0  0  0
   -0.9564   -2.9907    0.3918 C   0  0  0  0  0  0  0  0  0  0  0  0
   -1.8951   -2.0265    0.7624 C   0  0  0  0  0  0  0  0  0  0  0  0
   -3.1422   -2.2967    1.2297 O   0  0  0  0  0  0  0  0  0  0  0  0
   -3.4759   -3.6697    1.3670 C   0  0  0  0  0  0  0  0  0  0  0  0
   -1.5479   -0.6657    0.6573 C   0  0  0  0  0  0  0  0  0  0  0  0
   -0.2785   -0.3087    0.2170 C   0  0  0  0  0  0  0  0  0  0  0  0
   -2.4083    0.3278    1.0301 O   0  0  0  0  0  0  0  0  0  0  0  0
   -3.5966    0.4553    0.2107 C   0  0  0  0  0  0  0  0  0  0  0  0
   -3.2248    0.7183   -1.2409 C   0  0  0  0  0  0  0  0  0  0  0  0
   -2.7108    2.1699   -1.2424 C   0  0  0  0  0  0  0  0  0  0  0  0
   -3.3199    2.8318    0.0202 C   0  0  0  0  0  0  0  0  0  0  0  0
   -4.2323    1.7627    0.6418 C   0  0  0  0  0  0  0  0  0  0  0  0
    4.7046    3.5240    0.7210 H   0  0  0  0  0  0  0  0  0  0  0  0
    4.1021    1.6702    1.5161 H   0  0  0  0  0  0  0  0  0  0  0  0
    2.4880    2.5761   -0.3696 H   0  0  0  0  0  0  0  0  0  0  0  0
    1.8780    1.4653    0.8401 H   0  0  0  0  0  0  0  0  0  0  0  0
    2.9849    0.5857   -1.8577 H   0  0  0  0  0  0  0  0  0  0  0  0
    1.2707    0.8334   -1.5912 H   0  0  0  0  0  0  0  0  0  0  0  0
    2.4591   -0.6450    1.5830 H   0  0  0  0  0  0  0  0  0  0  0  0
    3.2025   -2.0753    0.8924 H   0  0  0  0  0  0  0  0  0  0  0  0
    5.0216   -0.4709    1.2874 H   0  0  0  0  0  0  0  0  0  0  0  0
    4.7471   -0.5104   -0.4434 H   0  0  0  0  0  0  0  0  0  0  0  0
    1.0153   -3.3824   -0.3438 H   0  0  0  0  0  0  0  0  0  0  0  0
   -1.1998   -4.0407    0.4460 H   0  0  0  0  0  0  0  0  0  0  0  0
   -4.4837   -3.6904    1.7673 H   0  0  0  0  0  0  0  0  0  0  0  0
   -2.7981   -4.1712    2.0591 H   0  0  0  0  0  0  0  0  0  0  0  0
   -3.4554   -4.1804    0.4033 H   0  0  0  0  0  0  0  0  0  0  0  0
   -0.0709    0.7503    0.1597 H   0  0  0  0  0  0  0  0  0  0  0  0
   -4.2275   -0.4201    0.3530 H   0  0  0  0  0  0  0  0  0  0  0  0
   -2.5007    0.0006   -1.6253 H   0  0  0  0  0  0  0  0  0  0  0  0
   -4.1303    0.6264   -1.8429 H   0  0  0  0  0  0  0  0  0  0  0  0
   -1.6231    2.1886   -1.1953 H   0  0  0  0  0  0  0  0  0  0  0  0
   -2.9984    2.6887   -2.1547 H   0  0  0  0  0  0  0  0  0  0  0  0
   -2.5328    3.0936    0.7239 H   0  0  0  0  0  0  0  0  0  0  0  0
   -3.8651    3.7437   -0.2146 H   0  0  0  0  0  0  0  0  0  0  0  0
   -4.3108    1.8349    1.7247 H   0  0  0  0  0  0  0  0  0  0  0  0
   -5.2370    1.8134    0.2194 H   0  0  0  0  0  0  0  0  0  0  0  0
  1 26  1  0  0  0  0
  2  1  1  0  0  0  0
  2  4  1  0  0  0  0
  3  2  2  0  0  0  0
  4  9  1  0  0  0  0
  4 27  1  1  0  0  0
  5  4  1  0  0  0  0
  5 29  1  0  0  0  0
  6  7  1  0  0  0  0
  6  5  1  0  0  0  0
  7 10  1  6  0  0  0
  7 12  1  0  0  0  0
  7  8  1  0  0  0  0
  8 33  1  0  0  0  0
  8 32  1  0  0  0  0
  9  8  1  0  0  0  0
  9 34  1  0  0  0  0
 11 10  3  0  0  0  0
 12 13  2  0  0  0  0
 12 19  1  0  0  0  0
 13 14  1  0  0  0  0
 14 37  1  0  0  0  0
 14 15  2  0  0  0  0
 15 16  1  0  0  0  0
 16 17  1  0  0  0  0
 17 38  1  0  0  0  0
 17 39  1  0  0  0  0
 18 15  1  0  0  0  0
 18 20  1  0  0  0  0
 19 18  2  0  0  0  0
 21 42  1  0  0  0  0
 21 25  1  0  0  0  0
 21 20  1  0  0  0  0
 22 21  1  0  0  0  0
 23 22  1  0  0  0  0
 23 45  1  0  0  0  0
 23 24  1  0  0  0  0
 24 25  1  0  0  0  0
 24 47  1  0  0  0  0
 25 49  1  0  0  0  0
 28  5  1  0  0  0  0
 30  6  1  0  0  0  0
 31  6  1  0  0  0  0
 35  9  1  0  0  0  0
 36 13  1  0  0  0  0
 40 17  1  0  0  0  0
 41 19  1  0  0  0  0
 43 22  1  0  0  0  0
 44 22  1  0  0  0  0
 46 23  1  0  0  0  0
 48 24  1  0  0  0  0
 50 25  1  0  0  0  0
M  END
