omegacsd_SPIRIL_19.xyz
 OpenBabel11041815263D

 57 60  0  0  1  0  0  0  0  0999 V2000
   -2.0156   -1.5024   -1.0957 C   0  0  0  0  0  0  0  0  0  0  0  0
   -2.9993   -1.8258    0.0524 C   0  0  2  0  0  0  0  0  0  0  0  0
   -3.5463   -3.2178   -0.2789 C   0  0  0  0  0  0  0  0  0  0  0  0
   -2.8993   -4.2495   -0.2696 O   0  0  0  0  0  0  0  0  0  0  0  0
   -4.8570   -3.0768   -0.5898 N   0  0  0  0  0  0  0  0  0  0  0  0
   -5.3088   -1.7130   -0.5920 C   0  0  0  0  0  0  0  0  0  0  0  0
   -4.2283   -1.0287    0.0923 N   0  0  0  0  0  0  0  0  0  0  0  0
   -4.2864    0.3615    0.1440 C   0  0  0  0  0  0  0  0  0  0  0  0
   -5.4590    1.0326   -0.2502 C   0  0  0  0  0  0  0  0  0  0  0  0
   -5.5586    2.4184   -0.1516 C   0  0  0  0  0  0  0  0  0  0  0  0
   -4.4979    3.1755    0.3335 C   0  0  0  0  0  0  0  0  0  0  0  0
   -3.3319    2.5179    0.7211 C   0  0  0  0  0  0  0  0  0  0  0  0
   -3.2185    1.1347    0.6324 C   0  0  0  0  0  0  0  0  0  0  0  0
   -2.2729   -1.9037    1.4148 C   0  0  0  0  0  0  0  0  0  0  0  0
   -0.7661   -1.7805    1.2507 C   0  0  0  0  0  0  0  0  0  0  0  0
   -0.4723   -0.5223    0.5796 N   0  0  0  0  0  0  0  0  0  0  0  0
    0.8959   -0.0622    0.7404 C   0  0  0  0  0  0  0  0  0  0  0  0
    1.9961   -1.0109    0.2232 C   0  0  0  0  0  0  0  0  0  0  0  0
    3.3437   -0.3872    0.4046 C   0  0  0  0  0  0  0  0  0  0  0  0
    3.9612    0.4264   -0.4760 C   0  0  0  0  0  0  0  0  0  0  0  0
    5.2681    1.0298   -0.1463 C   0  0  0  0  0  0  0  0  0  0  0  0
    6.2275    1.2542   -1.1439 C   0  0  0  0  0  0  0  0  0  0  0  0
    7.4729    1.7983   -0.8439 C   0  0  0  0  0  0  0  0  0  0  0  0
    7.7539    2.1352    0.4704 C   0  0  0  0  0  0  0  0  0  0  0  0
    6.8263    1.9516    1.4844 C   0  0  0  0  0  0  0  0  0  0  0  0
    5.5876    1.4050    1.1667 C   0  0  0  0  0  0  0  0  0  0  0  0
    8.9523    2.6686    0.7683 F   0  0  0  0  0  0  0  0  0  0  0  0
    3.3878    0.7431   -1.8300 C   0  0  0  0  0  0  0  0  0  0  0  0
   -0.9306   -0.4636   -0.8077 C   0  0  0  0  0  0  0  0  0  0  0  0
   -2.5822   -1.2063   -1.9811 H   0  0  0  0  0  0  0  0  0  0  0  0
   -1.5259   -2.4486   -1.3318 H   0  0  0  0  0  0  0  0  0  0  0  0
   -5.4046   -3.8508   -0.9264 H   0  0  0  0  0  0  0  0  0  0  0  0
   -5.4603   -1.3365   -1.6148 H   0  0  0  0  0  0  0  0  0  0  0  0
   -6.2462   -1.6024   -0.0422 H   0  0  0  0  0  0  0  0  0  0  0  0
   -6.3069    0.4843   -0.6329 H   0  0  0  0  0  0  0  0  0  0  0  0
   -6.4752    2.9007   -0.4639 H   0  0  0  0  0  0  0  0  0  0  0  0
   -4.5767    4.2507    0.4074 H   0  0  0  0  0  0  0  0  0  0  0  0
   -2.4907    3.0832    1.1008 H   0  0  0  0  0  0  0  0  0  0  0  0
   -2.2940    0.6652    0.9399 H   0  0  0  0  0  0  0  0  0  0  0  0
   -2.6309   -1.0972    2.0514 H   0  0  0  0  0  0  0  0  0  0  0  0
   -2.5166   -2.8497    1.8987 H   0  0  0  0  0  0  0  0  0  0  0  0
   -0.3682   -2.6643    0.7327 H   0  0  0  0  0  0  0  0  0  0  0  0
   -0.2947   -1.7455    2.2346 H   0  0  0  0  0  0  0  0  0  0  0  0
    0.9907    0.8978    0.2260 H   0  0  0  0  0  0  0  0  0  0  0  0
    1.0717    0.1294    1.8023 H   0  0  0  0  0  0  0  0  0  0  0  0
    1.9492   -1.9481    0.7785 H   0  0  0  0  0  0  0  0  0  0  0  0
    1.8136   -1.2544   -0.8232 H   0  0  0  0  0  0  0  0  0  0  0  0
    3.8480   -0.5860    1.3439 H   0  0  0  0  0  0  0  0  0  0  0  0
    6.0111    0.9853   -2.1684 H   0  0  0  0  0  0  0  0  0  0  0  0
    8.2180    1.9619   -1.6089 H   0  0  0  0  0  0  0  0  0  0  0  0
    7.0711    2.2501    2.4934 H   0  0  0  0  0  0  0  0  0  0  0  0
    4.8448    1.2919    1.9447 H   0  0  0  0  0  0  0  0  0  0  0  0
    3.9214    0.2111   -2.6200 H   0  0  0  0  0  0  0  0  0  0  0  0
    2.3388    0.4672   -1.8998 H   0  0  0  0  0  0  0  0  0  0  0  0
    3.4759    1.8086   -2.0421 H   0  0  0  0  0  0  0  0  0  0  0  0
   -0.1091   -0.6515   -1.5118 H   0  0  0  0  0  0  0  0  0  0  0  0
   -1.2976    0.5453   -1.0080 H   0  0  0  0  0  0  0  0  0  0  0  0
  1 29  1  0  0  0  0
  2  1  1  6  0  0  0
  2  7  1  0  0  0  0
  2 14  1  0  0  0  0
  3  4  2  0  0  0  0
  3  2  1  0  0  0  0
  5  3  1  0  0  0  0
  6  5  1  0  0  0  0
  6 34  1  0  0  0  0
  6  7  1  0  0  0  0
  7  8  1  0  0  0  0
  8 13  2  0  0  0  0
  9 10  2  0  0  0  0
  9  8  1  0  0  0  0
 10 11  1  0  0  0  0
 11 37  1  0  0  0  0
 11 12  2  0  0  0  0
 12 38  1  0  0  0  0
 13 12  1  0  0  0  0
 13 39  1  0  0  0  0
 14 41  1  0  0  0  0
 14 40  1  0  0  0  0
 15 14  1  0  0  0  0
 15 43  1  0  0  0  0
 16 17  1  0  0  0  0
 16 15  1  0  0  0  0
 17 45  1  0  0  0  0
 18 19  1  0  0  0  0
 18 17  1  0  0  0  0
 18 46  1  0  0  0  0
 19 48  1  0  0  0  0
 20 21  1  0  0  0  0
 20 19  2  0  0  0  0
 21 26  2  0  0  0  0
 22 23  2  0  0  0  0
 22 21  1  0  0  0  0
 23 24  1  0  0  0  0
 24 27  1  0  0  0  0
 24 25  2  0  0  0  0
 25 51  1  0  0  0  0
 26 25  1  0  0  0  0
 26 52  1  0  0  0  0
 28 20  1  0  0  0  0
 29 16  1  0  0  0  0
 30  1  1  0  0  0  0
 31  1  1  0  0  0  0
 32  5  1  0  0  0  0
 33  6  1  0  0  0  0
 35  9  1  0  0  0  0
 36 10  1  0  0  0  0
 42 15  1  0  0  0  0
 44 17  1  0  0  0  0
 47 18  1  0  0  0  0
 49 22  1  0  0  0  0
 50 23  1  0  0  0  0
 53 28  1  0  0  0  0
 54 28  1  0  0  0  0
 55 28  1  0  0  0  0
 56 29  1  0  0  0  0
 57 29  1  0  0  0  0
M  END
