omegacsd_DIAVER_08.xyz
 OpenBabel11041815263D

 35 36  0  0  0  0  0  0  0  0999 V2000
   -3.6280   -1.4963   -0.6249 N   0  0  0  0  0  0  0  0  0  0  0  0
   -3.9938   -0.2659   -1.0036 C   0  0  0  0  0  0  0  0  0  0  0  0
   -3.4912    0.8933   -0.5631 N   0  0  0  0  0  0  0  0  0  0  0  0
   -2.5332    0.8165    0.3628 C   0  0  0  0  0  0  0  0  0  0  0  0
   -2.0772   -0.4128    0.8715 C   0  0  0  0  0  0  0  0  0  0  0  0
   -2.6778   -1.5311    0.3142 C   0  0  0  0  0  0  0  0  0  0  0  0
   -1.0229   -0.5294    1.9273 C   0  0  0  0  0  0  0  0  0  0  0  0
    0.4033   -0.4059    1.4274 C   0  0  0  0  0  0  0  0  0  0  0  0
    0.6876    0.2013    0.2011 C   0  0  0  0  0  0  0  0  0  0  0  0
    2.0025    0.3436   -0.2420 C   0  0  0  0  0  0  0  0  0  0  0  0
    3.0575   -0.1457    0.5509 C   0  0  0  0  0  0  0  0  0  0  0  0
    2.7697   -0.7592    1.7635 C   0  0  0  0  0  0  0  0  0  0  0  0
    1.4544   -0.8832    2.2070 C   0  0  0  0  0  0  0  0  0  0  0  0
    4.3633    0.0135    0.1707 O   0  0  0  0  0  0  0  0  0  0  0  0
    4.7203   -0.7974   -0.9494 C   0  0  0  0  0  0  0  0  0  0  0  0
    2.3544    0.9439   -1.4119 O   0  0  0  0  0  0  0  0  0  0  0  0
    1.2883    1.4833   -2.1791 C   0  0  0  0  0  0  0  0  0  0  0  0
   -1.9707    2.0119    0.7452 N   0  0  0  0  0  0  0  0  0  0  0  0
   -5.0239   -0.1805   -1.9092 N   0  0  0  0  0  0  0  0  0  0  0  0
   -2.3733   -2.5179    0.6482 H   0  0  0  0  0  0  0  0  0  0  0  0
   -1.1929    0.2293    2.6996 H   0  0  0  0  0  0  0  0  0  0  0  0
   -1.1344   -1.4914    2.4306 H   0  0  0  0  0  0  0  0  0  0  0  0
   -0.1282    0.5583   -0.4074 H   0  0  0  0  0  0  0  0  0  0  0  0
    3.5983   -1.1234    2.3552 H   0  0  0  0  0  0  0  0  0  0  0  0
    1.2491   -1.3600    3.1572 H   0  0  0  0  0  0  0  0  0  0  0  0
    4.5798   -1.8536   -0.7131 H   0  0  0  0  0  0  0  0  0  0  0  0
    5.7711   -0.6058   -1.1429 H   0  0  0  0  0  0  0  0  0  0  0  0
    4.1309   -0.5362   -1.8260 H   0  0  0  0  0  0  0  0  0  0  0  0
    0.7335    2.2315   -1.6111 H   0  0  0  0  0  0  0  0  0  0  0  0
    1.7514    1.9489   -3.0423 H   0  0  0  0  0  0  0  0  0  0  0  0
    0.6017    0.7026   -2.5100 H   0  0  0  0  0  0  0  0  0  0  0  0
   -2.5433    2.8161    0.5449 H   0  0  0  0  0  0  0  0  0  0  0  0
   -1.4897    2.0351    1.6282 H   0  0  0  0  0  0  0  0  0  0  0  0
   -5.1709   -1.0171   -2.4472 H   0  0  0  0  0  0  0  0  0  0  0  0
   -5.0652    0.6837   -2.4210 H   0  0  0  0  0  0  0  0  0  0  0  0
  1  6  1  0  0  0  0
  2  1  2  0  0  0  0
  2  3  1  0  0  0  0
  3  4  2  0  0  0  0
  4 18  1  0  0  0  0
  4  5  1  0  0  0  0
  5  7  1  0  0  0  0
  6 20  1  0  0  0  0
  6  5  2  0  0  0  0
  7 22  1  0  0  0  0
  7 21  1  0  0  0  0
  8  7  1  0  0  0  0
  8 13  2  0  0  0  0
  9  8  1  0  0  0  0
 10  9  2  0  0  0  0
 10 11  1  0  0  0  0
 11 12  2  0  0  0  0
 12 13  1  0  0  0  0
 12 24  1  0  0  0  0
 13 25  1  0  0  0  0
 14 11  1  0  0  0  0
 15 26  1  0  0  0  0
 15 14  1  0  0  0  0
 16 10  1  0  0  0  0
 17 29  1  0  0  0  0
 17 16  1  0  0  0  0
 18 33  1  0  0  0  0
 19  2  1  0  0  0  0
 23  9  1  0  0  0  0
 27 15  1  0  0  0  0
 28 15  1  0  0  0  0
 30 17  1  0  0  0  0
 31 17  1  0  0  0  0
 32 18  1  0  0  0  0
 34 19  1  0  0  0  0
 35 19  1  0  0  0  0
M  END
