omegacsd_CUHNEY10_19.xyz
 OpenBabel11041815263D

 44 47  0  0  1  0  0  0  0  0999 V2000
    0.8024   -4.5779   -0.8092 Cl  0  0  0  0  0  0  0  0  0  0  0  0
   -0.1998   -3.1926   -0.5563 C   0  0  0  0  0  0  0  0  0  0  0  0
   -0.1780   -2.1492   -1.4807 C   0  0  0  0  0  0  0  0  0  0  0  0
   -0.9158   -1.0466   -1.3313 N   0  0  0  0  0  0  0  0  0  0  0  0
   -1.7142   -0.9752   -0.2611 C   0  0  0  0  0  0  0  0  0  0  0  0
   -2.4423    0.2273   -0.0992 N   0  0  0  0  0  0  0  0  0  0  0  0
   -3.2309    0.7570   -1.1231 C   0  0  0  0  0  0  0  0  0  0  0  0
   -3.6626    0.1617   -2.0826 O   0  0  0  0  0  0  0  0  0  0  0  0
   -3.4332    2.1858   -0.7266 C   0  0  0  0  0  0  0  0  0  0  0  0
   -4.1857    3.0926   -1.3480 N   0  0  0  0  0  0  0  0  0  0  0  0
   -4.1490    4.2947   -0.7514 C   0  0  0  0  0  0  0  0  0  0  0  0
   -3.4050    4.5604    0.4047 C   0  0  0  0  0  0  0  0  0  0  0  0
   -2.6563    3.6325    1.0249 N   0  0  0  0  0  0  0  0  0  0  0  0
   -2.6937    2.4493    0.4179 C   0  0  0  0  0  0  0  0  0  0  0  0
   -1.9613    1.2192    0.8547 C   0  0  2  0  0  0  0  0  0  0  0  0
   -0.5656    1.4190    0.6944 O   0  0  0  0  0  0  0  0  0  0  0  0
    0.2035    0.5721    1.4692 C   0  0  0  0  0  0  0  0  0  0  0  0
   -0.2063    0.0289    2.4800 O   0  0  0  0  0  0  0  0  0  0  0  0
    1.4399    0.4689    0.9452 N   0  0  0  0  0  0  0  0  0  0  0  0
    2.4370   -0.3327    1.6244 C   0  0  0  0  0  0  0  0  0  0  0  0
    2.8254   -1.5397    0.7685 C   0  0  0  0  0  0  0  0  0  0  0  0
    2.7423   -1.2153   -0.6569 N   0  0  0  0  0  0  0  0  0  0  0  0
    2.9946    0.1953   -0.8895 C   0  0  0  0  0  0  0  0  0  0  0  0
    1.8052    0.9942   -0.3677 C   0  0  0  0  0  0  0  0  0  0  0  0
    3.6249   -2.0687   -1.4291 C   0  0  0  0  0  0  0  0  0  0  0  0
   -1.8067   -1.9743    0.7046 C   0  0  0  0  0  0  0  0  0  0  0  0
   -1.0218   -3.1112    0.5615 C   0  0  0  0  0  0  0  0  0  0  0  0
    0.4621   -2.2041   -2.3501 H   0  0  0  0  0  0  0  0  0  0  0  0
   -4.7371    5.0807   -1.2072 H   0  0  0  0  0  0  0  0  0  0  0  0
   -3.4167    5.5493    0.8438 H   0  0  0  0  0  0  0  0  0  0  0  0
   -2.1608    0.9268    1.8844 H   0  0  0  0  0  0  0  0  0  0  0  0
    3.3115    0.2898    1.8199 H   0  0  0  0  0  0  0  0  0  0  0  0
    2.0244   -0.6467    2.5781 H   0  0  0  0  0  0  0  0  0  0  0  0
    2.1612   -2.3825    0.9695 H   0  0  0  0  0  0  0  0  0  0  0  0
    3.8458   -1.8424    1.0492 H   0  0  0  0  0  0  0  0  0  0  0  0
    3.9404    0.5345   -0.4367 H   0  0  0  0  0  0  0  0  0  0  0  0
    3.0780    0.3645   -1.9626 H   0  0  0  0  0  0  0  0  0  0  0  0
    0.9603    0.8595   -1.0385 H   0  0  0  0  0  0  0  0  0  0  0  0
    2.0473    2.0580   -0.3107 H   0  0  0  0  0  0  0  0  0  0  0  0
    3.4806   -1.8831   -2.4927 H   0  0  0  0  0  0  0  0  0  0  0  0
    4.6862   -1.9055   -1.1860 H   0  0  0  0  0  0  0  0  0  0  0  0
    3.3851   -3.1111   -1.2270 H   0  0  0  0  0  0  0  0  0  0  0  0
   -2.4664   -1.8508    1.5505 H   0  0  0  0  0  0  0  0  0  0  0  0
   -1.0490   -3.9120    1.2861 H   0  0  0  0  0  0  0  0  0  0  0  0
  1  2  1  0  0  0  0
  2 27  2  0  0  0  0
  3  4  2  0  0  0  0
  3  2  1  0  0  0  0
  4  5  1  0  0  0  0
  5  6  1  0  0  0  0
  5 26  2  0  0  0  0
  6 15  1  0  0  0  0
  7  9  1  0  0  0  0
  7  6  1  0  0  0  0
  8  7  2  0  0  0  0
  9 14  2  0  0  0  0
 10 11  2  0  0  0  0
 10  9  1  0  0  0  0
 11 12  1  0  0  0  0
 12 30  1  0  0  0  0
 12 13  2  0  0  0  0
 14 15  1  0  0  0  0
 14 13  1  0  0  0  0
 15 31  1  1  0  0  0
 16 15  1  0  0  0  0
 16 17  1  0  0  0  0
 17 18  2  0  0  0  0
 19 17  1  0  0  0  0
 19 20  1  0  0  0  0
 20 32  1  0  0  0  0
 20 33  1  0  0  0  0
 21 34  1  0  0  0  0
 21 35  1  0  0  0  0
 21 20  1  0  0  0  0
 22 21  1  0  0  0  0
 23 22  1  0  0  0  0
 23 36  1  0  0  0  0
 23 24  1  0  0  0  0
 24 39  1  0  0  0  0
 24 19  1  0  0  0  0
 25 42  1  0  0  0  0
 25 41  1  0  0  0  0
 25 22  1  0  0  0  0
 26 43  1  0  0  0  0
 27 26  1  0  0  0  0
 27 44  1  0  0  0  0
 28  3  1  0  0  0  0
 29 11  1  0  0  0  0
 37 23  1  0  0  0  0
 38 24  1  0  0  0  0
 40 25  1  0  0  0  0
M  END
