omegapdb_1qxw_21.xyz
 OpenBabel11041815263D

 36 36  0  0  1  0  0  0  0  0999 V2000
    4.8005    0.7020   -0.2695 C   0  0  0  0  0  0  0  0  0  0  0  0
    3.7474    1.6666   -0.7726 C   0  0  0  0  0  0  0  0  0  0  0  0
    3.4732    0.1836   -0.7135 C   0  0  0  0  0  0  0  0  0  0  0  0
    2.5780   -0.3713    0.2632 N   0  0  0  0  0  0  0  0  0  0  0  0
    1.1742   -0.0804   -0.0238 C   0  0  0  0  0  0  0  0  0  0  0  0
    0.3415   -0.8595    0.9808 C   0  0  0  0  0  0  0  0  0  0  0  0
   -1.1661   -0.8787    0.7228 C   0  0  1  0  0  0  0  0  0  0  0  0
   -1.7325   -1.5872    1.8779 N   0  0  0  0  0  0  0  0  0  0  0  0
   -1.7847    0.5102    0.6438 C   0  0  0  0  0  0  0  0  0  0  0  0
   -3.2440    0.5093    0.1622 C   0  0  0  0  0  0  0  0  0  0  0  0
   -3.3996    0.8511   -1.3188 C   0  0  0  0  0  0  0  0  0  0  0  0
   -2.6962   -0.1207   -2.2584 C   0  0  0  0  0  0  0  0  0  0  0  0
    0.6077   -0.2777    2.2374 O   0  0  0  0  0  0  0  0  0  0  0  0
    0.7349   -2.2160    0.9465 O   0  0  0  0  0  0  0  0  0  0  0  0
    4.9976    0.6979    0.7925 H   0  0  0  0  0  0  0  0  0  0  0  0
    5.6605    0.5110   -0.8916 H   0  0  0  0  0  0  0  0  0  0  0  0
    3.2559    2.2803   -0.0319 H   0  0  0  0  0  0  0  0  0  0  0  0
    3.8996    2.1327   -1.7341 H   0  0  0  0  0  0  0  0  0  0  0  0
    3.4442   -0.3416   -1.6588 H   0  0  0  0  0  0  0  0  0  0  0  0
    2.7936    0.0037    1.1819 H   0  0  0  0  0  0  0  0  0  0  0  0
    0.9496   -0.4386   -1.0297 H   0  0  0  0  0  0  0  0  0  0  0  0
    0.9453    0.9868    0.0314 H   0  0  0  0  0  0  0  0  0  0  0  0
   -1.3231   -1.4142   -0.2178 H   0  0  0  0  0  0  0  0  0  0  0  0
   -2.7419   -1.5188    1.8751 H   0  0  0  0  0  0  0  0  0  0  0  0
   -1.4945   -2.5702    1.8174 H   0  0  0  0  0  0  0  0  0  0  0  0
   -1.1984    1.1392   -0.0278 H   0  0  0  0  0  0  0  0  0  0  0  0
   -1.7046    0.9549    1.6359 H   0  0  0  0  0  0  0  0  0  0  0  0
   -3.8212    1.2290    0.7436 H   0  0  0  0  0  0  0  0  0  0  0  0
   -3.7033   -0.4666    0.3467 H   0  0  0  0  0  0  0  0  0  0  0  0
   -4.4625    0.8835   -1.5652 H   0  0  0  0  0  0  0  0  0  0  0  0
   -3.0135    1.8595   -1.4856 H   0  0  0  0  0  0  0  0  0  0  0  0
   -3.0507   -1.1401   -2.1030 H   0  0  0  0  0  0  0  0  0  0  0  0
   -1.6180   -0.1167   -2.1043 H   0  0  0  0  0  0  0  0  0  0  0  0
   -2.8794    0.1417   -3.2993 H   0  0  0  0  0  0  0  0  0  0  0  0
   -0.0694   -0.6701    2.8146 H   0  0  0  0  0  0  0  0  0  0  0  0
    1.7000   -2.1746    0.8392 H   0  0  0  0  0  0  0  0  0  0  0  0
  1 15  1  0  0  0  0
  2  3  1  0  0  0  0
  2  1  1  0  0  0  0
  2 17  1  0  0  0  0
  3  1  1  0  0  0  0
  3  4  1  0  0  0  0
  4 20  1  0  0  0  0
  5 22  1  0  0  0  0
  5  4  1  0  0  0  0
  5  6  1  0  0  0  0
  6 13  1  0  0  0  0
  7 23  1  6  0  0  0
  7  6  1  0  0  0  0
  7  8  1  0  0  0  0
  9  7  1  0  0  0  0
  9 27  1  0  0  0  0
 10 29  1  0  0  0  0
 10  9  1  0  0  0  0
 10 28  1  0  0  0  0
 11 10  1  0  0  0  0
 12 33  1  0  0  0  0
 12 32  1  0  0  0  0
 12 11  1  0  0  0  0
 13 35  1  0  0  0  0
 14  6  1  0  0  0  0
 16  1  1  0  0  0  0
 18  2  1  0  0  0  0
 19  3  1  0  0  0  0
 21  5  1  0  0  0  0
 24  8  1  0  0  0  0
 25  8  1  0  0  0  0
 26  9  1  0  0  0  0
 30 11  1  0  0  0  0
 31 11  1  0  0  0  0
 34 12  1  0  0  0  0
 36 14  1  0  0  0  0
M  END
