omegapdb_1v2k_03.xyz
 OpenBabel11041815263D

 61 65  0  0  0  0  0  0  0  0999 V2000
    8.1996   -1.2639   -2.9952 N   0  0  0  0  0  0  0  0  0  0  0  0
    7.5857   -0.0766   -3.0901 C   0  0  0  0  0  0  0  0  0  0  0  0
    6.5268    0.3374   -2.2938 C   0  0  0  0  0  0  0  0  0  0  0  0
    6.0228   -0.5242   -1.3017 C   0  0  0  0  0  0  0  0  0  0  0  0
    6.6615   -1.7741   -1.1980 C   0  0  0  0  0  0  0  0  0  0  0  0
    7.7163   -2.0786   -2.0464 C   0  0  0  0  0  0  0  0  0  0  0  0
    4.9765   -0.1748   -0.4927 N   0  0  0  0  0  0  0  0  0  0  0  0
    4.6785   -0.9200    0.7241 C   0  0  0  0  0  0  0  0  0  0  0  0
    4.1159    0.0259    1.7742 C   0  0  0  0  0  0  0  0  0  0  0  0
    2.8017    0.6781    1.3254 C   0  0  0  0  0  0  0  0  0  0  0  0
    2.7804    0.8135   -0.2103 C   0  0  0  0  0  0  0  0  0  0  0  0
    4.1809    1.0034   -0.7742 C   0  0  0  0  0  0  0  0  0  0  0  0
    1.6192   -0.1721    1.7614 C   0  0  0  0  0  0  0  0  0  0  0  0
    1.7592   -1.3764    1.9702 O   0  0  0  0  0  0  0  0  0  0  0  0
    0.4049    0.4431    1.8882 N   0  0  0  0  0  0  0  0  0  0  0  0
   -0.7660   -0.3616    2.2090 C   0  0  0  0  0  0  0  0  0  0  0  0
   -1.6880   -0.4208    0.9980 C   0  0  0  0  0  0  0  0  0  0  0  0
   -2.0160    0.9132    0.4753 N   0  0  0  0  0  0  0  0  0  0  0  0
   -0.8330    1.7513    0.2522 C   0  0  0  0  0  0  0  0  0  0  0  0
    0.0749    1.7960    1.4785 C   0  0  0  0  0  0  0  0  0  0  0  0
   -3.3046    1.6663    1.2197 S   0  0  0  0  0  0  0  0  0  0  0  0
   -3.2718    1.5001    2.6655 O   0  0  0  0  0  0  0  0  0  0  0  0
   -3.3752    2.9965    0.6471 O   0  0  0  0  0  0  0  0  0  0  0  0
   -4.6387    0.6715    0.6111 C   0  0  0  0  0  0  0  0  0  0  0  0
   -4.8981    0.6703   -0.7428 C   0  0  0  0  0  0  0  0  0  0  0  0
   -5.9721   -0.0933   -1.2422 C   0  0  0  0  0  0  0  0  0  0  0  0
   -6.7721   -0.8543   -0.3303 C   0  0  0  0  0  0  0  0  0  0  0  0
   -6.4694   -0.8172    1.0509 C   0  0  0  0  0  0  0  0  0  0  0  0
   -5.4170   -0.0654    1.5248 C   0  0  0  0  0  0  0  0  0  0  0  0
   -7.8472   -1.6225   -0.8295 C   0  0  0  0  0  0  0  0  0  0  0  0
   -8.1119   -1.6297   -2.1796 C   0  0  0  0  0  0  0  0  0  0  0  0
   -7.3328   -0.8837   -3.0887 C   0  0  0  0  0  0  0  0  0  0  0  0
   -6.2816   -0.1299   -2.6228 C   0  0  0  0  0  0  0  0  0  0  0  0
   -9.4290   -2.5703   -2.7952 Cl  0  0  0  0  0  0  0  0  0  0  0  0
    7.9691    0.5974   -3.8473 H   0  0  0  0  0  0  0  0  0  0  0  0
    6.1273    1.3303   -2.4347 H   0  0  0  0  0  0  0  0  0  0  0  0
    6.3283   -2.5176   -0.4899 H   0  0  0  0  0  0  0  0  0  0  0  0
    8.1970   -3.0461   -1.9614 H   0  0  0  0  0  0  0  0  0  0  0  0
    3.9776   -1.7398    0.5449 H   0  0  0  0  0  0  0  0  0  0  0  0
    5.6083   -1.3493    1.0964 H   0  0  0  0  0  0  0  0  0  0  0  0
    3.9601   -0.5216    2.7013 H   0  0  0  0  0  0  0  0  0  0  0  0
    4.8566    0.8048    1.9614 H   0  0  0  0  0  0  0  0  0  0  0  0
    2.7394    1.6694    1.7751 H   0  0  0  0  0  0  0  0  0  0  0  0
    2.3626   -0.0956   -0.6491 H   0  0  0  0  0  0  0  0  0  0  0  0
    2.1487    1.6456   -0.5231 H   0  0  0  0  0  0  0  0  0  0  0  0
    4.6336    1.9184   -0.3677 H   0  0  0  0  0  0  0  0  0  0  0  0
    4.1160    1.1271   -1.8555 H   0  0  0  0  0  0  0  0  0  0  0  0
   -1.2890    0.0959    3.0489 H   0  0  0  0  0  0  0  0  0  0  0  0
   -0.4206   -1.3552    2.4799 H   0  0  0  0  0  0  0  0  0  0  0  0
   -1.1961   -0.9658    0.1894 H   0  0  0  0  0  0  0  0  0  0  0  0
   -2.6153   -0.9414    1.2390 H   0  0  0  0  0  0  0  0  0  0  0  0
   -0.2913    1.3077   -0.5861 H   0  0  0  0  0  0  0  0  0  0  0  0
   -1.1674    2.7474   -0.0285 H   0  0  0  0  0  0  0  0  0  0  0  0
   -0.4467    2.2952    2.2994 H   0  0  0  0  0  0  0  0  0  0  0  0
    0.9751    2.3604    1.2566 H   0  0  0  0  0  0  0  0  0  0  0  0
   -4.2837    1.2540   -1.4166 H   0  0  0  0  0  0  0  0  0  0  0  0
   -7.0794   -1.3905    1.7375 H   0  0  0  0  0  0  0  0  0  0  0  0
   -5.1788   -0.0190    2.5778 H   0  0  0  0  0  0  0  0  0  0  0  0
   -8.4596   -2.2017   -0.1516 H   0  0  0  0  0  0  0  0  0  0  0  0
   -7.5729   -0.9141   -4.1417 H   0  0  0  0  0  0  0  0  0  0  0  0
   -5.6795    0.4465   -3.3135 H   0  0  0  0  0  0  0  0  0  0  0  0
  1  6  1  0  0  0  0
  2  1  2  0  0  0  0
  2  3  1  0  0  0  0
  3  4  2  0  0  0  0
  4  5  1  0  0  0  0
  4  7  1  0  0  0  0
  5 37  1  0  0  0  0
  6 38  1  0  0  0  0
  6  5  2  0  0  0  0
  7  8  1  0  0  0  0
  8 40  1  0  0  0  0
  8  9  1  0  0  0  0
  9 42  1  0  0  0  0
  9 41  1  0  0  0  0
 10 13  1  0  0  0  0
 10  9  1  0  0  0  0
 10 43  1  0  0  0  0
 11 10  1  0  0  0  0
 12  7  1  0  0  0  0
 12 46  1  0  0  0  0
 12 11  1  0  0  0  0
 13 15  1  0  0  0  0
 13 14  2  0  0  0  0
 15 16  1  0  0  0  0
 16 49  1  0  0  0  0
 16 48  1  0  0  0  0
 17 51  1  0  0  0  0
 17 16  1  0  0  0  0
 18 17  1  0  0  0  0
 18 21  1  0  0  0  0
 19 18  1  0  0  0  0
 19 20  1  0  0  0  0
 20 15  1  0  0  0  0
 20 54  1  0  0  0  0
 21 22  2  0  0  0  0
 23 21  2  0  0  0  0
 24 21  1  0  0  0  0
 24 29  2  0  0  0  0
 25 24  1  0  0  0  0
 26 25  2  0  0  0  0
 26 27  1  0  0  0  0
 27 28  2  0  0  0  0
 28 29  1  0  0  0  0
 28 57  1  0  0  0  0
 29 58  1  0  0  0  0
 30 27  1  0  0  0  0
 30 59  1  0  0  0  0
 31 30  2  0  0  0  0
 32 33  2  0  0  0  0
 32 31  1  0  0  0  0
 33 26  1  0  0  0  0
 34 31  1  0  0  0  0
 35  2  1  0  0  0  0
 36  3  1  0  0  0  0
 39  8  1  0  0  0  0
 44 11  1  0  0  0  0
 45 11  1  0  0  0  0
 47 12  1  0  0  0  0
 50 17  1  0  0  0  0
 52 19  1  0  0  0  0
 53 19  1  0  0  0  0
 55 20  1  0  0  0  0
 56 25  1  0  0  0  0
 60 32  1  0  0  0  0
 61 33  1  0  0  0  0
M  END
