omegapdb_2f7p_04.xyz
 OpenBabel11041815263D

 34 35  0  0  1  0  0  0  0  0999 V2000
   -1.2190   -0.5313   -0.4096 C   0  0  1  0  0  0  0  0  0  0  0  0
    0.1105    0.0386   -0.2615 N   0  0  0  0  0  0  0  0  0  0  0  0
    1.1793   -0.9651   -0.3450 C   0  0  0  0  0  0  0  0  0  0  0  0
    2.5105   -0.3118   -0.1255 C   0  0  0  0  0  0  0  0  0  0  0  0
    2.9026    0.0602    1.1635 C   0  0  0  0  0  0  0  0  0  0  0  0
    4.1148    0.7104    1.3724 C   0  0  0  0  0  0  0  0  0  0  0  0
    4.9468    0.9994    0.2908 C   0  0  0  0  0  0  0  0  0  0  0  0
    4.5633    0.6339   -0.9972 C   0  0  0  0  0  0  0  0  0  0  0  0
    3.3486   -0.0186   -1.2021 C   0  0  0  0  0  0  0  0  0  0  0  0
   -1.7265   -1.0393    0.9737 C   0  0  1  0  0  0  0  0  0  0  0  0
   -1.0707   -0.3180    2.0019 O   0  0  0  0  0  0  0  0  0  0  0  0
   -3.2520   -0.7219    0.9928 C   0  0  1  0  0  0  0  0  0  0  0  0
   -3.5378    0.3092    1.9196 O   0  0  0  0  0  0  0  0  0  0  0  0
   -3.5654   -0.1885   -0.4158 C   0  0  1  0  0  0  0  0  0  0  0  0
   -4.6920    0.6493   -0.4443 O   0  0  0  0  0  0  0  0  0  0  0  0
   -2.2607    0.5008   -0.8010 C   0  0  2  0  0  0  0  0  0  0  0  0
   -2.1155    0.9561   -2.5469 S   0  0  0  0  0  0  0  0  0  0  0  0
   -1.2416   -1.3558   -1.1340 H   0  0  0  0  0  0  0  0  0  0  0  0
    0.2640    0.7641   -0.9551 H   0  0  0  0  0  0  0  0  0  0  0  0
    1.1671   -1.4890   -1.3082 H   0  0  0  0  0  0  0  0  0  0  0  0
    0.9889   -1.7049    0.4353 H   0  0  0  0  0  0  0  0  0  0  0  0
    2.2554   -0.1680    2.0019 H   0  0  0  0  0  0  0  0  0  0  0  0
    4.4119    0.9889    2.3742 H   0  0  0  0  0  0  0  0  0  0  0  0
    5.8898    1.5031    0.4525 H   0  0  0  0  0  0  0  0  0  0  0  0
    5.2069    0.8535   -1.8380 H   0  0  0  0  0  0  0  0  0  0  0  0
    3.0506   -0.3080   -2.2026 H   0  0  0  0  0  0  0  0  0  0  0  0
   -1.5432   -2.1055    1.1060 H   0  0  0  0  0  0  0  0  0  0  0  0
   -0.3797    0.1792    1.5042 H   0  0  0  0  0  0  0  0  0  0  0  0
   -3.8523   -1.5979    1.2372 H   0  0  0  0  0  0  0  0  0  0  0  0
   -2.6813    0.4845    2.3489 H   0  0  0  0  0  0  0  0  0  0  0  0
   -3.7462   -1.0119   -1.1102 H   0  0  0  0  0  0  0  0  0  0  0  0
   -4.6763    1.0966    0.4152 H   0  0  0  0  0  0  0  0  0  0  0  0
   -2.1358    1.3886   -0.1765 H   0  0  0  0  0  0  0  0  0  0  0  0
   -3.2146    1.7195   -2.5608 H   0  0  0  0  0  0  0  0  0  0  0  0
  1 18  1  6  0  0  0
  1  2  1  0  0  0  0
  1 10  1  0  0  0  0
  3  2  1  0  0  0  0
  3  4  1  0  0  0  0
  3 21  1  0  0  0  0
  4  5  2  0  0  0  0
  5  6  1  0  0  0  0
  5 22  1  0  0  0  0
  6 23  1  0  0  0  0
  7 24  1  0  0  0  0
  7  6  2  0  0  0  0
  8  7  1  0  0  0  0
  9  8  2  0  0  0  0
  9  4  1  0  0  0  0
 10 12  1  0  0  0  0
 10 27  1  1  0  0  0
 10 11  1  0  0  0  0
 12 29  1  1  0  0  0
 12 13  1  0  0  0  0
 13 30  1  0  0  0  0
 14 31  1  6  0  0  0
 14 12  1  0  0  0  0
 15 14  1  0  0  0  0
 15 32  1  0  0  0  0
 16 14  1  0  0  0  0
 16  1  1  0  0  0  0
 16 33  1  1  0  0  0
 17 16  1  0  0  0  0
 19  2  1  0  0  0  0
 20  3  1  0  0  0  0
 25  8  1  0  0  0  0
 26  9  1  0  0  0  0
 28 11  1  0  0  0  0
 34 17  1  0  0  0  0
M  END
