omegacsd_CUHNEY10_08.xyz
 OpenBabel11041815263D

 44 47  0  0  1  0  0  0  0  0999 V2000
   -0.0723   -5.0081   -0.5853 Cl  0  0  0  0  0  0  0  0  0  0  0  0
   -0.8473   -3.4653   -0.5670 C   0  0  0  0  0  0  0  0  0  0  0  0
   -0.5815   -2.5694    0.4638 C   0  0  0  0  0  0  0  0  0  0  0  0
   -1.1359   -1.3566    0.5149 N   0  0  0  0  0  0  0  0  0  0  0  0
   -1.9779   -0.9975   -0.4596 C   0  0  0  0  0  0  0  0  0  0  0  0
   -2.4702    0.3068   -0.3361 N   0  0  0  0  0  0  0  0  0  0  0  0
   -3.4651    0.8947   -1.1152 C   0  0  0  0  0  0  0  0  0  0  0  0
   -4.1154    0.3690   -1.9958 O   0  0  0  0  0  0  0  0  0  0  0  0
   -3.5521    2.2958   -0.6111 C   0  0  0  0  0  0  0  0  0  0  0  0
   -4.3824    3.2442   -1.0410 N   0  0  0  0  0  0  0  0  0  0  0  0
   -4.2113    4.4093   -0.3964 C   0  0  0  0  0  0  0  0  0  0  0  0
   -3.2610    4.5988    0.6153 C   0  0  0  0  0  0  0  0  0  0  0  0
   -2.4330    3.6282    1.0374 N   0  0  0  0  0  0  0  0  0  0  0  0
   -2.6136    2.4787    0.3929 C   0  0  0  0  0  0  0  0  0  0  0  0
   -1.8434    1.2161    0.6245 C   0  0  2  0  0  0  0  0  0  0  0  0
   -0.4843    1.3851    0.2814 O   0  0  0  0  0  0  0  0  0  0  0  0
    0.4017    0.9138    1.2370 C   0  0  0  0  0  0  0  0  0  0  0  0
    0.1613    0.8976    2.4254 O   0  0  0  0  0  0  0  0  0  0  0  0
    1.5635    0.5402    0.6599 N   0  0  0  0  0  0  0  0  0  0  0  0
    2.6202    0.0559    1.5419 C   0  0  0  0  0  0  0  0  0  0  0  0
    3.9129    0.0434    0.7433 C   0  0  0  0  0  0  0  0  0  0  0  0
    3.8719   -0.8571   -0.4152 N   0  0  0  0  0  0  0  0  0  0  0  0
    2.5164   -0.9932   -0.9468 C   0  0  0  0  0  0  0  0  0  0  0  0
    1.7278    0.2897   -0.7689 C   0  0  0  0  0  0  0  0  0  0  0  0
    4.4106   -2.1706   -0.1105 C   0  0  0  0  0  0  0  0  0  0  0  0
   -2.3190   -1.8390   -1.5261 C   0  0  0  0  0  0  0  0  0  0  0  0
   -1.7342   -3.0972   -1.5737 C   0  0  0  0  0  0  0  0  0  0  0  0
    0.0903   -2.8362    1.2698 H   0  0  0  0  0  0  0  0  0  0  0  0
   -4.8535    5.2277   -0.6947 H   0  0  0  0  0  0  0  0  0  0  0  0
   -3.1668    5.5621    1.0990 H   0  0  0  0  0  0  0  0  0  0  0  0
   -1.9116    0.8431    1.6455 H   0  0  0  0  0  0  0  0  0  0  0  0
    2.3792   -0.9428    1.9197 H   0  0  0  0  0  0  0  0  0  0  0  0
    2.6897    0.7206    2.4005 H   0  0  0  0  0  0  0  0  0  0  0  0
    4.7423   -0.2524    1.3843 H   0  0  0  0  0  0  0  0  0  0  0  0
    4.1166    1.0612    0.4043 H   0  0  0  0  0  0  0  0  0  0  0  0
    2.5699   -1.2524   -2.0056 H   0  0  0  0  0  0  0  0  0  0  0  0
    1.9651   -1.8019   -0.4410 H   0  0  0  0  0  0  0  0  0  0  0  0
    0.7465    0.1914   -1.2226 H   0  0  0  0  0  0  0  0  0  0  0  0
    2.2453    1.1205   -1.2543 H   0  0  0  0  0  0  0  0  0  0  0  0
    4.3812   -2.7871   -1.0083 H   0  0  0  0  0  0  0  0  0  0  0  0
    5.4482   -2.0826    0.2061 H   0  0  0  0  0  0  0  0  0  0  0  0
    3.8454   -2.6962    0.6751 H   0  0  0  0  0  0  0  0  0  0  0  0
   -3.0146   -1.5081   -2.2794 H   0  0  0  0  0  0  0  0  0  0  0  0
   -1.9597   -3.7802   -2.3800 H   0  0  0  0  0  0  0  0  0  0  0  0
  1  2  1  0  0  0  0
  2  3  2  0  0  0  0
  3  4  1  0  0  0  0
  3 28  1  0  0  0  0
  5  6  1  0  0  0  0
  5  4  2  0  0  0  0
  6 15  1  0  0  0  0
  7  9  1  0  0  0  0
  7  6  1  0  0  0  0
  8  7  2  0  0  0  0
  9 14  1  0  0  0  0
 10  9  2  0  0  0  0
 10 11  1  0  0  0  0
 11 12  2  0  0  0  0
 12 13  1  0  0  0  0
 12 30  1  0  0  0  0
 14 15  1  0  0  0  0
 14 13  2  0  0  0  0
 15 31  1  1  0  0  0
 16 15  1  0  0  0  0
 16 17  1  0  0  0  0
 17 18  2  0  0  0  0
 19 17  1  0  0  0  0
 19 20  1  0  0  0  0
 20 32  1  0  0  0  0
 20 33  1  0  0  0  0
 21 34  1  0  0  0  0
 21 20  1  0  0  0  0
 22 25  1  0  0  0  0
 22 21  1  0  0  0  0
 23 24  1  0  0  0  0
 23 37  1  0  0  0  0
 23 22  1  0  0  0  0
 24 19  1  0  0  0  0
 25 41  1  0  0  0  0
 25 42  1  0  0  0  0
 26  5  1  0  0  0  0
 27 26  2  0  0  0  0
 27  2  1  0  0  0  0
 29 11  1  0  0  0  0
 35 21  1  0  0  0  0
 36 23  1  0  0  0  0
 38 24  1  0  0  0  0
 39 24  1  0  0  0  0
 40 25  1  0  0  0  0
 43 26  1  0  0  0  0
 44 27  1  0  0  0  0
M  END
