omegacsd_SPIRIL_15.xyz
 OpenBabel11041815263D

 57 60  0  0  1  0  0  0  0  0999 V2000
   -1.6947   -1.5104   -1.8387 C   0  0  0  0  0  0  0  0  0  0  0  0
   -3.0025   -1.6190   -1.0553 C   0  0  2  0  0  0  0  0  0  0  0  0
   -4.0490   -2.4373   -1.8051 C   0  0  0  0  0  0  0  0  0  0  0  0
   -3.8653   -3.5014   -2.3691 O   0  0  0  0  0  0  0  0  0  0  0  0
   -5.2260   -1.7627   -1.6897 N   0  0  0  0  0  0  0  0  0  0  0  0
   -5.1165   -0.5959   -0.8479 C   0  0  0  0  0  0  0  0  0  0  0  0
   -3.6923   -0.3084   -0.9510 N   0  0  0  0  0  0  0  0  0  0  0  0
   -3.1637    0.6372   -0.0326 C   0  0  0  0  0  0  0  0  0  0  0  0
   -2.1749    1.5166   -0.4928 C   0  0  0  0  0  0  0  0  0  0  0  0
   -1.5700    2.4241    0.3724 C   0  0  0  0  0  0  0  0  0  0  0  0
   -1.9660    2.4907    1.7074 C   0  0  0  0  0  0  0  0  0  0  0  0
   -2.9833    1.6551    2.1629 C   0  0  0  0  0  0  0  0  0  0  0  0
   -3.5781    0.7340    1.3028 C   0  0  0  0  0  0  0  0  0  0  0  0
   -2.7459   -2.3170    0.3006 C   0  0  0  0  0  0  0  0  0  0  0  0
   -1.3583   -1.9879    0.8248 C   0  0  0  0  0  0  0  0  0  0  0  0
   -0.3548   -2.6052   -0.0398 N   0  0  0  0  0  0  0  0  0  0  0  0
    0.9681   -2.0487    0.1829 C   0  0  0  0  0  0  0  0  0  0  0  0
    1.2100   -0.6104   -0.2955 C   0  0  0  0  0  0  0  0  0  0  0  0
    2.5861   -0.1482    0.0885 C   0  0  0  0  0  0  0  0  0  0  0  0
    3.0586    1.1071   -0.0379 C   0  0  0  0  0  0  0  0  0  0  0  0
    4.4351    1.4434    0.3731 C   0  0  0  0  0  0  0  0  0  0  0  0
    5.4788    0.5127    0.2633 C   0  0  0  0  0  0  0  0  0  0  0  0
    6.7714    0.8200    0.6737 C   0  0  0  0  0  0  0  0  0  0  0  0
    7.0254    2.0814    1.1904 C   0  0  0  0  0  0  0  0  0  0  0  0
    6.0296    3.0388    1.2969 C   0  0  0  0  0  0  0  0  0  0  0  0
    4.7418    2.7142    0.8802 C   0  0  0  0  0  0  0  0  0  0  0  0
    8.2746    2.3883    1.5841 F   0  0  0  0  0  0  0  0  0  0  0  0
    2.2055    2.2235   -0.5729 C   0  0  0  0  0  0  0  0  0  0  0  0
   -0.7556   -2.6499   -1.4523 C   0  0  0  0  0  0  0  0  0  0  0  0
   -1.9044   -1.5183   -2.9089 H   0  0  0  0  0  0  0  0  0  0  0  0
   -1.2238   -0.5589   -1.5945 H   0  0  0  0  0  0  0  0  0  0  0  0
   -6.0994   -2.1846   -1.9572 H   0  0  0  0  0  0  0  0  0  0  0  0
   -5.4584   -0.8199    0.1722 H   0  0  0  0  0  0  0  0  0  0  0  0
   -5.6927    0.2460   -1.2324 H   0  0  0  0  0  0  0  0  0  0  0  0
   -1.9093    1.4898   -1.5404 H   0  0  0  0  0  0  0  0  0  0  0  0
   -0.8078    3.0936   -0.0024 H   0  0  0  0  0  0  0  0  0  0  0  0
   -1.5020    3.1992    2.3794 H   0  0  0  0  0  0  0  0  0  0  0  0
   -3.3122    1.7124    3.1918 H   0  0  0  0  0  0  0  0  0  0  0  0
   -4.3571    0.0881    1.6825 H   0  0  0  0  0  0  0  0  0  0  0  0
   -2.8223   -3.3979    0.1658 H   0  0  0  0  0  0  0  0  0  0  0  0
   -3.5097   -2.0222    1.0222 H   0  0  0  0  0  0  0  0  0  0  0  0
   -1.2524   -0.8958    0.8893 H   0  0  0  0  0  0  0  0  0  0  0  0
   -1.2313   -2.3782    1.8376 H   0  0  0  0  0  0  0  0  0  0  0  0
    1.1653   -2.0952    1.2580 H   0  0  0  0  0  0  0  0  0  0  0  0
    1.7011   -2.7025   -0.2980 H   0  0  0  0  0  0  0  0  0  0  0  0
    0.4559    0.0569    0.1289 H   0  0  0  0  0  0  0  0  0  0  0  0
    1.0894   -0.5656   -1.3826 H   0  0  0  0  0  0  0  0  0  0  0  0
    3.2417   -0.8954    0.5262 H   0  0  0  0  0  0  0  0  0  0  0  0
    5.2807   -0.4562   -0.1744 H   0  0  0  0  0  0  0  0  0  0  0  0
    7.5785    0.1076    0.5815 H   0  0  0  0  0  0  0  0  0  0  0  0
    6.2659    4.0139    1.6977 H   0  0  0  0  0  0  0  0  0  0  0  0
    3.9637    3.4595    0.9695 H   0  0  0  0  0  0  0  0  0  0  0  0
    1.3161    1.8384   -1.0661 H   0  0  0  0  0  0  0  0  0  0  0  0
    1.8755    2.8859    0.2306 H   0  0  0  0  0  0  0  0  0  0  0  0
    2.7642    2.8308   -1.2853 H   0  0  0  0  0  0  0  0  0  0  0  0
   -1.2510   -3.5977   -1.6684 H   0  0  0  0  0  0  0  0  0  0  0  0
    0.1472   -2.6182   -2.0637 H   0  0  0  0  0  0  0  0  0  0  0  0
  1 31  1  0  0  0  0
  1 29  1  0  0  0  0
  2  1  1  6  0  0  0
  2  7  1  0  0  0  0
  2 14  1  0  0  0  0
  3  5  1  0  0  0  0
  3  2  1  0  0  0  0
  4  3  2  0  0  0  0
  5  6  1  0  0  0  0
  6 33  1  0  0  0  0
  7  6  1  0  0  0  0
  7  8  1  0  0  0  0
  8 13  1  0  0  0  0
  9  8  2  0  0  0  0
  9 10  1  0  0  0  0
 10 11  2  0  0  0  0
 11 12  1  0  0  0  0
 11 37  1  0  0  0  0
 12 38  1  0  0  0  0
 13 39  1  0  0  0  0
 13 12  2  0  0  0  0
 14 15  1  0  0  0  0
 14 41  1  0  0  0  0
 15 42  1  0  0  0  0
 15 43  1  0  0  0  0
 16 17  1  0  0  0  0
 16 15  1  0  0  0  0
 17 44  1  0  0  0  0
 18 19  1  0  0  0  0
 18 46  1  0  0  0  0
 18 17  1  0  0  0  0
 19 48  1  0  0  0  0
 20 19  2  0  0  0  0
 20 21  1  0  0  0  0
 21 26  1  0  0  0  0
 22 21  2  0  0  0  0
 22 23  1  0  0  0  0
 23 24  2  0  0  0  0
 24 25  1  0  0  0  0
 24 27  1  0  0  0  0
 25 51  1  0  0  0  0
 26 52  1  0  0  0  0
 26 25  2  0  0  0  0
 28 20  1  0  0  0  0
 28 54  1  0  0  0  0
 29 16  1  0  0  0  0
 30  1  1  0  0  0  0
 32  5  1  0  0  0  0
 34  6  1  0  0  0  0
 35  9  1  0  0  0  0
 36 10  1  0  0  0  0
 40 14  1  0  0  0  0
 45 17  1  0  0  0  0
 47 18  1  0  0  0  0
 49 22  1  0  0  0  0
 50 23  1  0  0  0  0
 53 28  1  0  0  0  0
 55 28  1  0  0  0  0
 56 29  1  0  0  0  0
 57 29  1  0  0  0  0
M  END
