omegacsd_FIBREN_02.xyz
 OpenBabel11041815263D

 39 41  0  0  1  0  0  0  0  0999 V2000
   -2.8070   -2.1241   -0.5540 N   0  0  0  0  0  0  0  0  0  0  0  0
   -1.6885   -1.9106   -1.2662 C   0  0  0  0  0  0  0  0  0  0  0  0
   -0.8957   -0.8188   -1.2272 N   0  0  0  0  0  0  0  0  0  0  0  0
   -1.2117    0.1911   -0.4122 C   0  0  0  0  0  0  0  0  0  0  0  0
   -2.3602    0.0752    0.3810 C   0  0  0  0  0  0  0  0  0  0  0  0
   -3.0743   -1.0985    0.2359 C   0  0  0  0  0  0  0  0  0  0  0  0
   -4.1381   -1.0315    1.0965 O   0  0  0  0  0  0  0  0  0  0  0  0
   -3.9900    0.1852    1.7092 C   0  0  0  0  0  0  0  0  0  0  0  0
   -2.9556    0.8884    1.3309 N   0  0  0  0  0  0  0  0  0  0  0  0
   -5.0124    0.5473    2.7141 C   0  0  0  0  0  0  0  0  0  0  0  0
   -0.4234    1.3023   -0.3895 N   0  0  0  0  0  0  0  0  0  0  0  0
    0.9433    1.2158   -0.8806 C   0  0  1  0  0  0  0  0  0  0  0  0
    1.5644    2.6025   -0.7601 C   0  0  0  0  0  0  0  0  0  0  0  0
    2.9002    2.6659   -1.4485 C   0  0  0  0  0  0  0  0  0  0  0  0
    3.2044    2.0475   -2.4419 O   0  0  0  0  0  0  0  0  0  0  0  0
    3.7332    3.5378   -0.8385 O   0  0  0  0  0  0  0  0  0  0  0  0
    1.7640    0.1833   -0.1394 C   0  0  0  0  0  0  0  0  0  0  0  0
    1.7124    0.1064    1.2547 C   0  0  0  0  0  0  0  0  0  0  0  0
    2.4818   -0.8297    1.9407 C   0  0  0  0  0  0  0  0  0  0  0  0
    3.3122   -1.7001    1.2360 C   0  0  0  0  0  0  0  0  0  0  0  0
    3.3659   -1.6303   -0.1548 C   0  0  0  0  0  0  0  0  0  0  0  0
    2.5937   -0.6937   -0.8386 C   0  0  0  0  0  0  0  0  0  0  0  0
   -1.2562   -2.9919   -2.2055 C   0  0  0  0  0  0  0  0  0  0  0  0
   -5.0340   -0.1870    3.5172 H   0  0  0  0  0  0  0  0  0  0  0  0
   -6.0005    0.5749    2.2583 H   0  0  0  0  0  0  0  0  0  0  0  0
   -4.7729    1.5242    3.1205 H   0  0  0  0  0  0  0  0  0  0  0  0
   -0.6034    1.9261    0.3837 H   0  0  0  0  0  0  0  0  0  0  0  0
    0.9073    0.9359   -1.9321 H   0  0  0  0  0  0  0  0  0  0  0  0
    0.9153    3.3367   -1.2440 H   0  0  0  0  0  0  0  0  0  0  0  0
    1.6799    2.8911    0.2844 H   0  0  0  0  0  0  0  0  0  0  0  0
    4.5452    3.5341   -1.3686 H   0  0  0  0  0  0  0  0  0  0  0  0
    1.0567    0.7674    1.8095 H   0  0  0  0  0  0  0  0  0  0  0  0
    2.4304   -0.8832    3.0197 H   0  0  0  0  0  0  0  0  0  0  0  0
    3.9069   -2.4308    1.7668 H   0  0  0  0  0  0  0  0  0  0  0  0
    4.0019   -2.3089   -0.7069 H   0  0  0  0  0  0  0  0  0  0  0  0
    2.6262   -0.6393   -1.9186 H   0  0  0  0  0  0  0  0  0  0  0  0
   -1.2802   -2.6270   -3.2316 H   0  0  0  0  0  0  0  0  0  0  0  0
   -0.2296   -3.2819   -1.9881 H   0  0  0  0  0  0  0  0  0  0  0  0
   -1.9115   -3.8520   -2.1124 H   0  0  0  0  0  0  0  0  0  0  0  0
  1  6  2  0  0  0  0
  2  3  2  0  0  0  0
  2  1  1  0  0  0  0
  3  4  1  0  0  0  0
  4 11  1  0  0  0  0
  4  5  2  0  0  0  0
  5  9  1  0  0  0  0
  6  5  1  0  0  0  0
  6  7  1  0  0  0  0
  7  8  1  0  0  0  0
  8 10  1  0  0  0  0
  9  8  2  0  0  0  0
 10 26  1  0  0  0  0
 10 24  1  0  0  0  0
 11 27  1  0  0  0  0
 12 28  1  6  0  0  0
 12 13  1  0  0  0  0
 12 11  1  0  0  0  0
 12 17  1  0  0  0  0
 13 30  1  0  0  0  0
 14 16  1  0  0  0  0
 14 13  1  0  0  0  0
 15 14  2  0  0  0  0
 17 18  2  0  0  0  0
 18 32  1  0  0  0  0
 18 19  1  0  0  0  0
 19 33  1  0  0  0  0
 20 34  1  0  0  0  0
 20 19  2  0  0  0  0
 21 20  1  0  0  0  0
 22 21  2  0  0  0  0
 22 17  1  0  0  0  0
 23 39  1  0  0  0  0
 23 38  1  0  0  0  0
 23  2  1  0  0  0  0
 25 10  1  0  0  0  0
 29 13  1  0  0  0  0
 31 16  1  0  0  0  0
 35 21  1  0  0  0  0
 36 22  1  0  0  0  0
 37 23  1  0  0  0  0
M  END
