omegacsd_GALSEM_03.xyz
 OpenBabel11041815263D

 39 40  0  0  0  0  0  0  0  0999 V2000
    0.7900   -1.0094    2.6237 S   0  0  0  0  0  0  0  0  0  0  0  0
    1.5349   -1.7743    3.5859 O   0  0  0  0  0  0  0  0  0  0  0  0
   -0.5721   -0.5733    2.9043 O   0  0  0  0  0  0  0  0  0  0  0  0
    1.5704    0.4438    2.3124 N   0  0  0  0  0  0  0  0  0  0  0  0
    2.9111    0.5531    1.9448 C   0  0  0  0  0  0  0  0  0  0  0  0
    3.5954   -0.4255    1.7324 O   0  0  0  0  0  0  0  0  0  0  0  0
    3.3900    1.9821    1.8317 C   0  0  0  0  0  0  0  0  0  0  0  0
    4.8241    2.0578    1.3387 C   0  0  0  0  0  0  0  0  0  0  0  0
    0.8426   -1.8118    1.0643 C   0  0  0  0  0  0  0  0  0  0  0  0
   -0.0147   -1.4364    0.0101 C   0  0  0  0  0  0  0  0  0  0  0  0
   -0.9627   -0.4555    0.1513 N   0  0  0  0  0  0  0  0  0  0  0  0
   -2.0313   -0.2598   -0.7526 C   0  0  0  0  0  0  0  0  0  0  0  0
   -2.3906    1.0475   -1.0785 C   0  0  0  0  0  0  0  0  0  0  0  0
   -3.4773    1.2779   -1.9170 C   0  0  0  0  0  0  0  0  0  0  0  0
   -4.1956    0.2166   -2.4619 C   0  0  0  0  0  0  0  0  0  0  0  0
   -3.8309   -1.0873   -2.1360 C   0  0  0  0  0  0  0  0  0  0  0  0
   -2.7624   -1.3299   -1.2785 C   0  0  0  0  0  0  0  0  0  0  0  0
   -3.8221    2.6869   -2.2969 C   0  0  0  0  0  0  0  0  0  0  0  0
   -3.5360    3.5529   -1.3138 F   0  0  0  0  0  0  0  0  0  0  0  0
   -5.1223    2.8223   -2.5887 F   0  0  0  0  0  0  0  0  0  0  0  0
   -3.1315    3.0819   -3.3804 F   0  0  0  0  0  0  0  0  0  0  0  0
    0.2225   -2.0930   -1.2072 C   0  0  0  0  0  0  0  0  0  0  0  0
    1.2094   -3.0607   -1.2895 C   0  0  0  0  0  0  0  0  0  0  0  0
    1.9967   -3.4449   -0.2716 N   0  0  0  0  0  0  0  0  0  0  0  0
    1.8081   -2.8019    0.8800 C   0  0  0  0  0  0  0  0  0  0  0  0
    1.0117    1.2633    2.5015 H   0  0  0  0  0  0  0  0  0  0  0  0
    3.2861    2.4462    2.8149 H   0  0  0  0  0  0  0  0  0  0  0  0
    2.7123    2.5176    1.1636 H   0  0  0  0  0  0  0  0  0  0  0  0
    5.4888    1.5255    2.0136 H   0  0  0  0  0  0  0  0  0  0  0  0
    4.9173    1.6001    0.3573 H   0  0  0  0  0  0  0  0  0  0  0  0
    5.1481    3.0938    1.2729 H   0  0  0  0  0  0  0  0  0  0  0  0
   -1.1268   -0.1585    1.1071 H   0  0  0  0  0  0  0  0  0  0  0  0
   -1.8235    1.8727   -0.6720 H   0  0  0  0  0  0  0  0  0  0  0  0
   -5.0329    0.4080   -3.1162 H   0  0  0  0  0  0  0  0  0  0  0  0
   -4.3941   -1.9190   -2.5354 H   0  0  0  0  0  0  0  0  0  0  0  0
   -2.5038   -2.3416   -0.9981 H   0  0  0  0  0  0  0  0  0  0  0  0
   -0.3566   -1.8424   -2.0834 H   0  0  0  0  0  0  0  0  0  0  0  0
    1.3797   -3.5619   -2.2344 H   0  0  0  0  0  0  0  0  0  0  0  0
    2.4483   -3.0627    1.7108 H   0  0  0  0  0  0  0  0  0  0  0  0
  1  3  2  0  0  0  0
  1  2  2  0  0  0  0
  4 26  1  0  0  0  0
  4  1  1  0  0  0  0
  5  4  1  0  0  0  0
  6  5  2  0  0  0  0
  7  5  1  0  0  0  0
  7 27  1  0  0  0  0
  8  7  1  0  0  0  0
  8 29  1  0  0  0  0
  9  1  1  0  0  0  0
 10 11  1  0  0  0  0
 10  9  2  0  0  0  0
 11 32  1  0  0  0  0
 12 11  1  0  0  0  0
 13 12  1  0  0  0  0
 13 33  1  0  0  0  0
 14 13  2  0  0  0  0
 15 16  2  0  0  0  0
 15 14  1  0  0  0  0
 16 17  1  0  0  0  0
 17 36  1  0  0  0  0
 17 12  2  0  0  0  0
 18 14  1  0  0  0  0
 18 19  1  0  0  0  0
 20 18  1  0  0  0  0
 21 18  1  0  0  0  0
 22 10  1  0  0  0  0
 23 22  2  0  0  0  0
 23 24  1  0  0  0  0
 24 25  2  0  0  0  0
 25  9  1  0  0  0  0
 25 39  1  0  0  0  0
 28  7  1  0  0  0  0
 30  8  1  0  0  0  0
 31  8  1  0  0  0  0
 34 15  1  0  0  0  0
 35 16  1  0  0  0  0
 37 22  1  0  0  0  0
 38 23  1  0  0  0  0
M  END
