omegapdb_1qxw_15.xyz
 OpenBabel11041815263D

 36 36  0  0  1  0  0  0  0  0999 V2000
    5.0280    1.2659    0.6978 C   0  0  0  0  0  0  0  0  0  0  0  0
    4.6986    0.9596   -0.7482 C   0  0  0  0  0  0  0  0  0  0  0  0
    4.0767    0.1627    0.3715 C   0  0  0  0  0  0  0  0  0  0  0  0
    2.6892    0.3138    0.7132 N   0  0  0  0  0  0  0  0  0  0  0  0
    1.7901   -0.3128   -0.2526 C   0  0  0  0  0  0  0  0  0  0  0  0
    0.3982   -0.3164    0.3612 C   0  0  0  0  0  0  0  0  0  0  0  0
   -0.5944   -1.1841   -0.4165 C   0  0  1  0  0  0  0  0  0  0  0  0
   -0.0857   -2.5556   -0.3668 N   0  0  0  0  0  0  0  0  0  0  0  0
   -2.0352   -1.0101    0.0937 C   0  0  0  0  0  0  0  0  0  0  0  0
   -2.8351    0.0791   -0.6142 C   0  0  0  0  0  0  0  0  0  0  0  0
   -4.2457    0.2264   -0.0592 C   0  0  0  0  0  0  0  0  0  0  0  0
   -5.0528    1.2867   -0.7965 C   0  0  0  0  0  0  0  0  0  0  0  0
   -0.0017    1.0517    0.3793 O   0  0  0  0  0  0  0  0  0  0  0  0
    0.4579   -0.8122    1.6732 O   0  0  0  0  0  0  0  0  0  0  0  0
    6.0077    1.0070    1.0669 H   0  0  0  0  0  0  0  0  0  0  0  0
    4.6075    2.1677    1.1183 H   0  0  0  0  0  0  0  0  0  0  0  0
    5.4590    0.4966   -1.3581 H   0  0  0  0  0  0  0  0  0  0  0  0
    4.0553    1.6599   -1.2605 H   0  0  0  0  0  0  0  0  0  0  0  0
    4.4349   -0.8492    0.5024 H   0  0  0  0  0  0  0  0  0  0  0  0
    2.4549    1.2991    0.7786 H   0  0  0  0  0  0  0  0  0  0  0  0
    2.1020   -1.3420   -0.4103 H   0  0  0  0  0  0  0  0  0  0  0  0
    1.7601    0.2010   -1.2188 H   0  0  0  0  0  0  0  0  0  0  0  0
   -0.5543   -0.8549   -1.4585 H   0  0  0  0  0  0  0  0  0  0  0  0
   -0.0774   -2.8507    0.6034 H   0  0  0  0  0  0  0  0  0  0  0  0
   -0.7249   -3.1702   -0.8557 H   0  0  0  0  0  0  0  0  0  0  0  0
   -2.5530   -1.9615   -0.0508 H   0  0  0  0  0  0  0  0  0  0  0  0
   -2.0224   -0.8400    1.1742 H   0  0  0  0  0  0  0  0  0  0  0  0
   -2.8928   -0.1635   -1.6797 H   0  0  0  0  0  0  0  0  0  0  0  0
   -2.3127    1.0341   -0.5508 H   0  0  0  0  0  0  0  0  0  0  0  0
   -4.1886    0.4781    1.0025 H   0  0  0  0  0  0  0  0  0  0  0  0
   -4.7584   -0.7366   -0.1184 H   0  0  0  0  0  0  0  0  0  0  0  0
   -6.0566    1.3868   -0.3868 H   0  0  0  0  0  0  0  0  0  0  0  0
   -5.1459    1.0361   -1.8530 H   0  0  0  0  0  0  0  0  0  0  0  0
   -4.5649    2.2590   -0.7300 H   0  0  0  0  0  0  0  0  0  0  0  0
   -0.6595    1.1180    1.0812 H   0  0  0  0  0  0  0  0  0  0  0  0
    1.3419   -0.5296    1.9755 H   0  0  0  0  0  0  0  0  0  0  0  0
  1 15  1  0  0  0  0
  1 16  1  0  0  0  0
  2  3  1  0  0  0  0
  2  1  1  0  0  0  0
  3 19  1  0  0  0  0
  3  1  1  0  0  0  0
  3  4  1  0  0  0  0
  4 20  1  0  0  0  0
  5  6  1  0  0  0  0
  5  4  1  0  0  0  0
  6 13  1  0  0  0  0
  6 14  1  0  0  0  0
  7 23  1  6  0  0  0
  7  8  1  0  0  0  0
  7  9  1  0  0  0  0
  7  6  1  0  0  0  0
  8 24  1  0  0  0  0
  9 27  1  0  0  0  0
 10 29  1  0  0  0  0
 10 11  1  0  0  0  0
 10  9  1  0  0  0  0
 11 30  1  0  0  0  0
 12 34  1  0  0  0  0
 12 32  1  0  0  0  0
 12 11  1  0  0  0  0
 13 35  1  0  0  0  0
 14 36  1  0  0  0  0
 17  2  1  0  0  0  0
 18  2  1  0  0  0  0
 21  5  1  0  0  0  0
 22  5  1  0  0  0  0
 25  8  1  0  0  0  0
 26  9  1  0  0  0  0
 28 10  1  0  0  0  0
 31 11  1  0  0  0  0
 33 12  1  0  0  0  0
M  END
