omegapdb_1z1r_14.xyz
 OpenBabel11041815263D

 66 68  0  0  1  0  0  0  0  0999 V2000
    0.8077   -0.5250   -0.6728 C   0  0  2  0  0  0  0  0  0  0  0  0
    0.6365   -1.5965   -1.7720 C   0  0  0  0  0  0  0  0  0  0  0  0
   -0.5449   -2.4603   -1.4527 C   0  0  0  0  0  0  0  0  0  0  0  0
   -1.6910   -2.3977   -2.2460 C   0  0  0  0  0  0  0  0  0  0  0  0
   -2.8889   -2.9638   -1.8173 C   0  0  0  0  0  0  0  0  0  0  0  0
   -2.9553   -3.5686   -0.5643 C   0  0  0  0  0  0  0  0  0  0  0  0
   -1.7942   -3.7359    0.1920 C   0  0  0  0  0  0  0  0  0  0  0  0
   -0.5958   -3.1924   -0.2604 C   0  0  0  0  0  0  0  0  0  0  0  0
   -4.1781   -3.9281   -0.0472 O   0  0  0  0  0  0  0  0  0  0  0  0
   -4.6037   -2.9440    0.9175 C   0  0  0  0  0  0  0  0  0  0  0  0
   -4.8649   -1.5943    0.2682 C   0  0  0  0  0  0  0  0  0  0  0  0
   -5.0100   -0.4627    1.2863 C   0  0  0  0  0  0  0  0  0  0  0  0
   -3.7400   -0.1983    2.0583 C   0  0  0  0  0  0  0  0  0  0  0  0
   -3.6161   -0.4894    3.2398 O   0  0  0  0  0  0  0  0  0  0  0  0
   -2.6546    0.3544    1.3890 N   0  0  0  0  0  0  0  0  0  0  0  0
   -2.6218    1.0551    0.1213 C   0  0  2  0  0  0  0  0  0  0  0  0
   -1.3543    0.7557   -0.6943 C   0  0  0  0  0  0  0  0  0  0  0  0
   -1.1822    1.3361   -1.7702 O   0  0  0  0  0  0  0  0  0  0  0  0
   -0.4690   -0.0711   -0.1099 N   0  0  0  0  0  0  0  0  0  0  0  0
   -2.6840    2.5757    0.2974 C   0  0  0  0  0  0  0  0  0  0  0  0
   -4.0376    2.9982    0.8248 C   0  0  0  0  0  0  0  0  0  0  0  0
   -5.0752    2.6034    0.3093 O   0  0  0  0  0  0  0  0  0  0  0  0
   -4.0203    3.8367    1.8896 N   0  0  0  0  0  0  0  0  0  0  0  0
    1.6889    0.6532   -1.1223 C   0  0  2  0  0  0  0  0  0  0  0  0
    1.4059    1.1111   -2.4265 O   0  0  0  0  0  0  0  0  0  0  0  0
    3.1492    0.2418   -1.1350 C   0  0  0  0  0  0  0  0  0  0  0  0
    3.9273    1.4057   -1.5517 N   0  0  0  0  0  0  0  0  0  0  0  0
    5.5616    1.1595   -1.7202 S   0  0  0  0  0  0  0  0  0  0  0  0
    5.8474   -0.1898   -2.1759 O   0  0  0  0  0  0  0  0  0  0  0  0
    6.0589    2.3114   -2.4432 O   0  0  0  0  0  0  0  0  0  0  0  0
    6.0651    1.2577   -0.0232 C   0  0  0  0  0  0  0  0  0  0  0  0
    6.5042    0.1087    0.6279 C   0  0  0  0  0  0  0  0  0  0  0  0
    6.9009    0.2027    1.9610 C   0  0  0  0  0  0  0  0  0  0  0  0
    6.8544    1.4291    2.6203 C   0  0  0  0  0  0  0  0  0  0  0  0
    6.4146    2.5720    1.9498 C   0  0  0  0  0  0  0  0  0  0  0  0
    6.0151    2.4934    0.6202 C   0  0  0  0  0  0  0  0  0  0  0  0
    1.3120   -0.9854    0.1794 H   0  0  0  0  0  0  0  0  0  0  0  0
    1.5612   -2.1730   -1.8306 H   0  0  0  0  0  0  0  0  0  0  0  0
    0.4945   -1.1022   -2.7309 H   0  0  0  0  0  0  0  0  0  0  0  0
   -1.6590   -1.8527   -3.1813 H   0  0  0  0  0  0  0  0  0  0  0  0
   -3.7917   -2.8812   -2.4069 H   0  0  0  0  0  0  0  0  0  0  0  0
   -1.8501   -4.2578    1.1380 H   0  0  0  0  0  0  0  0  0  0  0  0
    0.2981   -3.2995    0.3441 H   0  0  0  0  0  0  0  0  0  0  0  0
   -5.5098   -3.3476    1.3647 H   0  0  0  0  0  0  0  0  0  0  0  0
   -3.8459   -2.8531    1.7007 H   0  0  0  0  0  0  0  0  0  0  0  0
   -5.7651   -1.6531   -0.3440 H   0  0  0  0  0  0  0  0  0  0  0  0
   -4.0393   -1.3670   -0.4049 H   0  0  0  0  0  0  0  0  0  0  0  0
   -5.7589   -0.7127    2.0359 H   0  0  0  0  0  0  0  0  0  0  0  0
   -5.3284    0.4474    0.7799 H   0  0  0  0  0  0  0  0  0  0  0  0
   -1.9401    0.6206    2.0564 H   0  0  0  0  0  0  0  0  0  0  0  0
   -3.4772    0.7491   -0.4790 H   0  0  0  0  0  0  0  0  0  0  0  0
   -0.8529   -0.6207    0.6462 H   0  0  0  0  0  0  0  0  0  0  0  0
   -2.5429    3.0383   -0.6790 H   0  0  0  0  0  0  0  0  0  0  0  0
   -1.8687    2.8991    0.9480 H   0  0  0  0  0  0  0  0  0  0  0  0
   -3.1644    4.1866    2.2745 H   0  0  0  0  0  0  0  0  0  0  0  0
   -4.8963    4.1878    2.2358 H   0  0  0  0  0  0  0  0  0  0  0  0
    1.5639    1.4616   -0.3919 H   0  0  0  0  0  0  0  0  0  0  0  0
    0.4541    1.3341   -2.4235 H   0  0  0  0  0  0  0  0  0  0  0  0
    3.2957   -0.6049   -1.8092 H   0  0  0  0  0  0  0  0  0  0  0  0
    3.4676   -0.0464   -0.1319 H   0  0  0  0  0  0  0  0  0  0  0  0
    3.5639    1.8059   -2.4150 H   0  0  0  0  0  0  0  0  0  0  0  0
    6.5430   -0.8249    0.0852 H   0  0  0  0  0  0  0  0  0  0  0  0
    7.2491   -0.6790    2.4808 H   0  0  0  0  0  0  0  0  0  0  0  0
    7.1659    1.4977    3.6535 H   0  0  0  0  0  0  0  0  0  0  0  0
    6.3876    3.5232    2.4632 H   0  0  0  0  0  0  0  0  0  0  0  0
    5.6782    3.3665    0.0794 H   0  0  0  0  0  0  0  0  0  0  0  0
  1 19  1  0  0  0  0
  1 37  1  1  0  0  0
  2  3  1  0  0  0  0
  2  1  1  0  0  0  0
  3  8  2  0  0  0  0
  4  5  2  0  0  0  0
  4  3  1  0  0  0  0
  5  6  1  0  0  0  0
  6  9  1  0  0  0  0
  6  7  2  0  0  0  0
  7 42  1  0  0  0  0
  8  7  1  0  0  0  0
  8 43  1  0  0  0  0
  9 10  1  0  0  0  0
 10 44  1  0  0  0  0
 10 45  1  0  0  0  0
 11 10  1  0  0  0  0
 11 12  1  0  0  0  0
 12 48  1  0  0  0  0
 12 13  1  0  0  0  0
 13 14  2  0  0  0  0
 15 50  1  0  0  0  0
 15 13  1  0  0  0  0
 16 51  1  6  0  0  0
 16 20  1  0  0  0  0
 16 15  1  0  0  0  0
 17 19  1  0  0  0  0
 17 16  1  0  0  0  0
 18 17  2  0  0  0  0
 19 52  1  0  0  0  0
 20 21  1  0  0  0  0
 20 54  1  0  0  0  0
 21 23  1  0  0  0  0
 22 21  2  0  0  0  0
 23 56  1  0  0  0  0
 23 55  1  0  0  0  0
 24  1  1  0  0  0  0
 24 57  1  1  0  0  0
 25 58  1  0  0  0  0
 25 24  1  0  0  0  0
 26 24  1  0  0  0  0
 26 60  1  0  0  0  0
 27 26  1  0  0  0  0
 28 27  1  0  0  0  0
 28 31  1  0  0  0  0
 29 28  2  0  0  0  0
 30 28  2  0  0  0  0
 31 36  2  0  0  0  0
 31 32  1  0  0  0  0
 32 33  2  0  0  0  0
 33 63  1  0  0  0  0
 33 34  1  0  0  0  0
 34 64  1  0  0  0  0
 35 65  1  0  0  0  0
 35 34  2  0  0  0  0
 36 35  1  0  0  0  0
 38  2  1  0  0  0  0
 39  2  1  0  0  0  0
 40  4  1  0  0  0  0
 41  5  1  0  0  0  0
 46 11  1  0  0  0  0
 47 11  1  0  0  0  0
 49 12  1  0  0  0  0
 53 20  1  0  0  0  0
 59 26  1  0  0  0  0
 61 27  1  0  0  0  0
 62 32  1  0  0  0  0
 66 36  1  0  0  0  0
M  END
