omegapdb_2f7p_05.xyz
 OpenBabel11041815263D

 34 35  0  0  1  0  0  0  0  0999 V2000
   -1.2613   -0.4053   -0.3917 C   0  0  1  0  0  0  0  0  0  0  0  0
    0.0806    0.1195   -0.2300 N   0  0  0  0  0  0  0  0  0  0  0  0
    1.1216   -0.8994   -0.4159 C   0  0  0  0  0  0  0  0  0  0  0  0
    2.4745   -0.2932   -0.1939 C   0  0  0  0  0  0  0  0  0  0  0  0
    2.9215   -0.0355    1.1048 C   0  0  0  0  0  0  0  0  0  0  0  0
    4.1549    0.5715    1.3198 C   0  0  0  0  0  0  0  0  0  0  0  0
    4.9535    0.9318    0.2344 C   0  0  0  0  0  0  0  0  0  0  0  0
    4.5151    0.6808   -1.0635 C   0  0  0  0  0  0  0  0  0  0  0  0
    3.2794    0.0711   -1.2742 C   0  0  0  0  0  0  0  0  0  0  0  0
   -1.7466   -1.0435    0.9371 C   0  0  1  0  0  0  0  0  0  0  0  0
   -1.0744   -0.4239    2.0209 O   0  0  0  0  0  0  0  0  0  0  0  0
   -3.2709   -0.7232    1.0063 C   0  0  1  0  0  0  0  0  0  0  0  0
   -3.5410    0.1928    2.0509 O   0  0  0  0  0  0  0  0  0  0  0  0
   -3.6052   -0.0232   -0.3255 C   0  0  1  0  0  0  0  0  0  0  0  0
   -4.7295    0.8039   -0.2291 O   0  0  0  0  0  0  0  0  0  0  0  0
   -2.2893    0.6856   -0.6526 C   0  0  2  0  0  0  0  0  0  0  0  0
   -2.1569    1.4848   -2.2671 S   0  0  0  0  0  0  0  0  0  0  0  0
   -1.3257   -1.1497   -1.1977 H   0  0  0  0  0  0  0  0  0  0  0  0
    0.2255    0.8765   -0.8931 H   0  0  0  0  0  0  0  0  0  0  0  0
    0.9383   -1.6890    0.3158 H   0  0  0  0  0  0  0  0  0  0  0  0
    1.0676   -1.3530   -1.4132 H   0  0  0  0  0  0  0  0  0  0  0  0
    2.2997   -0.3178    1.9459 H   0  0  0  0  0  0  0  0  0  0  0  0
    4.4944    0.7612    2.3288 H   0  0  0  0  0  0  0  0  0  0  0  0
    5.9128    1.4021    0.4006 H   0  0  0  0  0  0  0  0  0  0  0  0
    5.1322    0.9562   -1.9076 H   0  0  0  0  0  0  0  0  0  0  0  0
    2.9388   -0.1290   -2.2828 H   0  0  0  0  0  0  0  0  0  0  0  0
   -1.5660   -2.1180    0.9661 H   0  0  0  0  0  0  0  0  0  0  0  0
   -0.3829    0.1102    1.5668 H   0  0  0  0  0  0  0  0  0  0  0  0
   -3.8747   -1.6182    1.1537 H   0  0  0  0  0  0  0  0  0  0  0  0
   -2.6764    0.3248    2.4791 H   0  0  0  0  0  0  0  0  0  0  0  0
   -3.8057   -0.7648   -1.1039 H   0  0  0  0  0  0  0  0  0  0  0  0
   -4.6941    1.1514    0.6744 H   0  0  0  0  0  0  0  0  0  0  0  0
   -2.1464    1.4925    0.0724 H   0  0  0  0  0  0  0  0  0  0  0  0
   -2.3632    0.3702   -2.9808 H   0  0  0  0  0  0  0  0  0  0  0  0
  1 18  1  6  0  0  0
  1  2  1  0  0  0  0
  1 10  1  0  0  0  0
  3  2  1  0  0  0  0
  3  4  1  0  0  0  0
  3 20  1  0  0  0  0
  4  5  2  0  0  0  0
  5  6  1  0  0  0  0
  5 22  1  0  0  0  0
  6 23  1  0  0  0  0
  7 24  1  0  0  0  0
  7  6  2  0  0  0  0
  8  7  1  0  0  0  0
  9  8  2  0  0  0  0
  9  4  1  0  0  0  0
 10 27  1  6  0  0  0
 10 12  1  0  0  0  0
 10 11  1  0  0  0  0
 12 29  1  1  0  0  0
 12 13  1  0  0  0  0
 13 30  1  0  0  0  0
 14 31  1  6  0  0  0
 14 15  1  0  0  0  0
 14 12  1  0  0  0  0
 15 32  1  0  0  0  0
 16  1  1  0  0  0  0
 16 14  1  0  0  0  0
 16 33  1  1  0  0  0
 17 16  1  0  0  0  0
 19  2  1  0  0  0  0
 21  3  1  0  0  0  0
 25  8  1  0  0  0  0
 26  9  1  0  0  0  0
 28 11  1  0  0  0  0
 34 17  1  0  0  0  0
M  END
