omegapdb_1z1r_06.xyz
 OpenBabel11041815263D

 66 68  0  0  1  0  0  0  0  0999 V2000
    0.4665   -0.0083    0.7677 C   0  0  2  0  0  0  0  0  0  0  0  0
    0.8310   -0.6750   -0.5797 C   0  0  0  0  0  0  0  0  0  0  0  0
   -0.2427   -1.6103   -1.0507 C   0  0  0  0  0  0  0  0  0  0  0  0
   -1.1150   -1.2260   -2.0743 C   0  0  0  0  0  0  0  0  0  0  0  0
   -2.2246   -2.0029   -2.3980 C   0  0  0  0  0  0  0  0  0  0  0  0
   -2.4770   -3.1763   -1.6910 C   0  0  0  0  0  0  0  0  0  0  0  0
   -1.5479   -3.6385   -0.7566 C   0  0  0  0  0  0  0  0  0  0  0  0
   -0.4487   -2.8487   -0.4322 C   0  0  0  0  0  0  0  0  0  0  0  0
   -3.6652   -3.8277   -1.9096 O   0  0  0  0  0  0  0  0  0  0  0  0
   -4.5039   -3.8621   -0.7420 C   0  0  0  0  0  0  0  0  0  0  0  0
   -4.8620   -2.4920   -0.1778 C   0  0  0  0  0  0  0  0  0  0  0  0
   -3.7449   -1.8074    0.6125 C   0  0  0  0  0  0  0  0  0  0  0  0
   -4.2542   -0.6946    1.5029 C   0  0  0  0  0  0  0  0  0  0  0  0
   -5.0831   -0.8965    2.3756 O   0  0  0  0  0  0  0  0  0  0  0  0
   -3.6438    0.5380    1.3593 N   0  0  0  0  0  0  0  0  0  0  0  0
   -3.1445    1.0764    0.1059 C   0  0  2  0  0  0  0  0  0  0  0  0
   -1.6186    1.0886   -0.0212 C   0  0  0  0  0  0  0  0  0  0  0  0
   -1.0797    1.7523   -0.9220 O   0  0  0  0  0  0  0  0  0  0  0  0
   -0.9550    0.3304    0.8549 N   0  0  0  0  0  0  0  0  0  0  0  0
   -3.6654    2.5046   -0.1044 C   0  0  0  0  0  0  0  0  0  0  0  0
   -3.2008    3.3760    1.0443 C   0  0  0  0  0  0  0  0  0  0  0  0
   -3.7512    3.3321    2.1407 O   0  0  0  0  0  0  0  0  0  0  0  0
   -2.1284    4.1626    0.7821 N   0  0  0  0  0  0  0  0  0  0  0  0
    1.3469    1.2112    1.0792 C   0  0  2  0  0  0  0  0  0  0  0  0
    1.4366    2.1218   -0.0022 O   0  0  0  0  0  0  0  0  0  0  0  0
    2.7686    0.7932    1.4016 C   0  0  0  0  0  0  0  0  0  0  0  0
    3.5284    2.0091    1.6742 N   0  0  0  0  0  0  0  0  0  0  0  0
    5.1525    1.8265    1.9343 S   0  0  0  0  0  0  0  0  0  0  0  0
    5.2914    0.8375    2.9823 O   0  0  0  0  0  0  0  0  0  0  0  0
    5.6939    3.1625    2.0462 O   0  0  0  0  0  0  0  0  0  0  0  0
    5.7707    1.1025    0.4339 C   0  0  0  0  0  0  0  0  0  0  0  0
    6.0347    1.9323   -0.6552 C   0  0  0  0  0  0  0  0  0  0  0  0
    6.4608    1.3599   -1.8497 C   0  0  0  0  0  0  0  0  0  0  0  0
    6.6151   -0.0231   -1.9504 C   0  0  0  0  0  0  0  0  0  0  0  0
    6.3527   -0.8394   -0.8518 C   0  0  0  0  0  0  0  0  0  0  0  0
    5.9240   -0.2800    0.3507 C   0  0  0  0  0  0  0  0  0  0  0  0
    0.6217   -0.7341    1.5680 H   0  0  0  0  0  0  0  0  0  0  0  0
    1.0085    0.0971   -1.3248 H   0  0  0  0  0  0  0  0  0  0  0  0
    1.7704   -1.2105   -0.4344 H   0  0  0  0  0  0  0  0  0  0  0  0
   -0.9458   -0.2890   -2.5892 H   0  0  0  0  0  0  0  0  0  0  0  0
   -2.9312   -1.6887   -3.1545 H   0  0  0  0  0  0  0  0  0  0  0  0
   -1.7135   -4.5842   -0.2582 H   0  0  0  0  0  0  0  0  0  0  0  0
    0.2498   -3.1939    0.3217 H   0  0  0  0  0  0  0  0  0  0  0  0
   -4.0377   -4.4737    0.0361 H   0  0  0  0  0  0  0  0  0  0  0  0
   -5.4041   -4.3709   -1.0789 H   0  0  0  0  0  0  0  0  0  0  0  0
   -5.2066   -1.8506   -0.9925 H   0  0  0  0  0  0  0  0  0  0  0  0
   -5.7053   -2.6334    0.5016 H   0  0  0  0  0  0  0  0  0  0  0  0
   -3.3102   -2.5369    1.3007 H   0  0  0  0  0  0  0  0  0  0  0  0
   -2.9409   -1.4654   -0.0310 H   0  0  0  0  0  0  0  0  0  0  0  0
   -3.9962    1.2452    2.0020 H   0  0  0  0  0  0  0  0  0  0  0  0
   -3.4911    0.4624   -0.7293 H   0  0  0  0  0  0  0  0  0  0  0  0
   -1.5305   -0.1081    1.5599 H   0  0  0  0  0  0  0  0  0  0  0  0
   -4.7527    2.4894   -0.1001 H   0  0  0  0  0  0  0  0  0  0  0  0
   -3.3052    2.8682   -1.0624 H   0  0  0  0  0  0  0  0  0  0  0  0
   -1.5902    4.0163   -0.0537 H   0  0  0  0  0  0  0  0  0  0  0  0
   -1.7083    4.6543    1.5528 H   0  0  0  0  0  0  0  0  0  0  0  0
    0.9229    1.7068    1.9599 H   0  0  0  0  0  0  0  0  0  0  0  0
    0.5623    2.1349   -0.4408 H   0  0  0  0  0  0  0  0  0  0  0  0
    3.1831    0.2379    0.5535 H   0  0  0  0  0  0  0  0  0  0  0  0
    2.7954    0.1638    2.2897 H   0  0  0  0  0  0  0  0  0  0  0  0
    3.3602    2.7190    0.9661 H   0  0  0  0  0  0  0  0  0  0  0  0
    5.9299    3.0034   -0.5513 H   0  0  0  0  0  0  0  0  0  0  0  0
    6.6777    1.9917   -2.6998 H   0  0  0  0  0  0  0  0  0  0  0  0
    6.9489   -0.4616   -2.8806 H   0  0  0  0  0  0  0  0  0  0  0  0
    6.4855   -1.9097   -0.9283 H   0  0  0  0  0  0  0  0  0  0  0  0
    5.7357   -0.8883    1.2239 H   0  0  0  0  0  0  0  0  0  0  0  0
  1 19  1  0  0  0  0
  1 24  1  0  0  0  0
  1 37  1  1  0  0  0
  2 39  1  0  0  0  0
  2  1  1  0  0  0  0
  3  2  1  0  0  0  0
  3  8  2  0  0  0  0
  4  3  1  0  0  0  0
  5  4  2  0  0  0  0
  5  6  1  0  0  0  0
  6  7  2  0  0  0  0
  7  8  1  0  0  0  0
  7 42  1  0  0  0  0
  8 43  1  0  0  0  0
  9  6  1  0  0  0  0
  9 10  1  0  0  0  0
 10 11  1  0  0  0  0
 10 44  1  0  0  0  0
 11 47  1  0  0  0  0
 11 12  1  0  0  0  0
 12 48  1  0  0  0  0
 12 13  1  0  0  0  0
 13 14  2  0  0  0  0
 15 13  1  0  0  0  0
 15 50  1  0  0  0  0
 16 51  1  6  0  0  0
 16 15  1  0  0  0  0
 17 16  1  0  0  0  0
 17 19  1  0  0  0  0
 18 17  2  0  0  0  0
 19 52  1  0  0  0  0
 20 53  1  0  0  0  0
 20 16  1  0  0  0  0
 20 21  1  0  0  0  0
 21 22  2  0  0  0  0
 23 21  1  0  0  0  0
 23 56  1  0  0  0  0
 24 26  1  0  0  0  0
 24 57  1  1  0  0  0
 25 24  1  0  0  0  0
 26 27  1  0  0  0  0
 26 60  1  0  0  0  0
 27 28  1  0  0  0  0
 28 30  2  0  0  0  0
 28 29  2  0  0  0  0
 31 28  1  0  0  0  0
 32 62  1  0  0  0  0
 32 31  2  0  0  0  0
 33 32  1  0  0  0  0
 34 33  2  0  0  0  0
 34 35  1  0  0  0  0
 35 36  2  0  0  0  0
 36 31  1  0  0  0  0
 36 66  1  0  0  0  0
 38  2  1  0  0  0  0
 40  4  1  0  0  0  0
 41  5  1  0  0  0  0
 45 10  1  0  0  0  0
 46 11  1  0  0  0  0
 49 12  1  0  0  0  0
 54 20  1  0  0  0  0
 55 23  1  0  0  0  0
 58 25  1  0  0  0  0
 59 26  1  0  0  0  0
 61 27  1  0  0  0  0
 63 33  1  0  0  0  0
 64 34  1  0  0  0  0
 65 35  1  0  0  0  0
M  END
