omegacsd_FIBREN_16.xyz
 OpenBabel11041815263D

 39 41  0  0  1  0  0  0  0  0999 V2000
   -2.2607    0.9465   -1.9289 N   0  0  0  0  0  0  0  0  0  0  0  0
   -1.0418    0.3893   -1.9872 C   0  0  0  0  0  0  0  0  0  0  0  0
   -0.3063   -0.0713   -0.9528 N   0  0  0  0  0  0  0  0  0  0  0  0
   -0.7839    0.0312    0.2943 C   0  0  0  0  0  0  0  0  0  0  0  0
   -2.0613    0.5850    0.4701 C   0  0  0  0  0  0  0  0  0  0  0  0
   -2.7010    1.0002   -0.6819 C   0  0  0  0  0  0  0  0  0  0  0  0
   -3.9134    1.5131   -0.3076 O   0  0  0  0  0  0  0  0  0  0  0  0
   -3.9246    1.3701    1.0561 C   0  0  0  0  0  0  0  0  0  0  0  0
   -2.8556    0.8295    1.5771 N   0  0  0  0  0  0  0  0  0  0  0  0
   -5.1364    1.8409    1.7600 C   0  0  0  0  0  0  0  0  0  0  0  0
   -0.0230   -0.3648    1.3440 N   0  0  0  0  0  0  0  0  0  0  0  0
    1.2706   -1.0074    1.1737 C   0  0  1  0  0  0  0  0  0  0  0  0
    1.1302   -2.3832    0.5326 C   0  0  0  0  0  0  0  0  0  0  0  0
    0.2439   -3.2761    1.3712 C   0  0  0  0  0  0  0  0  0  0  0  0
   -0.0588   -3.0598    2.5181 O   0  0  0  0  0  0  0  0  0  0  0  0
   -0.1942   -4.4010    0.7534 O   0  0  0  0  0  0  0  0  0  0  0  0
    2.2376   -0.0815    0.4617 C   0  0  0  0  0  0  0  0  0  0  0  0
    3.0404   -0.4888   -0.6039 C   0  0  0  0  0  0  0  0  0  0  0  0
    3.9302    0.4014   -1.2033 C   0  0  0  0  0  0  0  0  0  0  0  0
    4.0281    1.7121   -0.7444 C   0  0  0  0  0  0  0  0  0  0  0  0
    3.2316    2.1267    0.3220 C   0  0  0  0  0  0  0  0  0  0  0  0
    2.3467    1.2348    0.9191 C   0  0  0  0  0  0  0  0  0  0  0  0
   -0.4190    0.2408   -3.3403 C   0  0  0  0  0  0  0  0  0  0  0  0
   -6.0145    1.3028    1.4073 H   0  0  0  0  0  0  0  0  0  0  0  0
   -5.2962    2.9016    1.5756 H   0  0  0  0  0  0  0  0  0  0  0  0
   -5.0101    1.6715    2.8241 H   0  0  0  0  0  0  0  0  0  0  0  0
   -0.5075   -0.5206    2.2145 H   0  0  0  0  0  0  0  0  0  0  0  0
    1.6392   -1.1631    2.1889 H   0  0  0  0  0  0  0  0  0  0  0  0
    2.1053   -2.8711    0.4607 H   0  0  0  0  0  0  0  0  0  0  0  0
    0.7279   -2.2788   -0.4762 H   0  0  0  0  0  0  0  0  0  0  0  0
    0.1160   -4.3942   -0.1596 H   0  0  0  0  0  0  0  0  0  0  0  0
    2.9671   -1.4939   -0.9937 H   0  0  0  0  0  0  0  0  0  0  0  0
    4.5400    0.0705   -2.0331 H   0  0  0  0  0  0  0  0  0  0  0  0
    4.7150    2.4032   -1.2130 H   0  0  0  0  0  0  0  0  0  0  0  0
    3.2988    3.1425    0.6871 H   0  0  0  0  0  0  0  0  0  0  0  0
    1.7186    1.5608    1.7383 H   0  0  0  0  0  0  0  0  0  0  0  0
    0.6103    0.5934   -3.3166 H   0  0  0  0  0  0  0  0  0  0  0  0
   -0.9899    0.7975   -4.0767 H   0  0  0  0  0  0  0  0  0  0  0  0
   -0.3991   -0.8099   -3.6308 H   0  0  0  0  0  0  0  0  0  0  0  0
  1  6  1  0  0  0  0
  2  1  2  0  0  0  0
  2  3  1  0  0  0  0
  3  4  2  0  0  0  0
  4  5  1  0  0  0  0
  4 11  1  0  0  0  0
  5  9  1  0  0  0  0
  6  7  1  0  0  0  0
  6  5  2  0  0  0  0
  7  8  1  0  0  0  0
  8  9  2  0  0  0  0
  8 10  1  0  0  0  0
 10 26  1  0  0  0  0
 11 27  1  0  0  0  0
 12 11  1  0  0  0  0
 12 28  1  1  0  0  0
 13 12  1  0  0  0  0
 13 14  1  0  0  0  0
 14 15  2  0  0  0  0
 16 14  1  0  0  0  0
 17 22  1  0  0  0  0
 17 12  1  0  0  0  0
 18 17  2  0  0  0  0
 19 20  2  0  0  0  0
 19 18  1  0  0  0  0
 20 21  1  0  0  0  0
 21 35  1  0  0  0  0
 21 22  2  0  0  0  0
 22 36  1  0  0  0  0
 23 37  1  0  0  0  0
 23  2  1  0  0  0  0
 24 10  1  0  0  0  0
 25 10  1  0  0  0  0
 29 13  1  0  0  0  0
 30 13  1  0  0  0  0
 31 16  1  0  0  0  0
 32 18  1  0  0  0  0
 33 19  1  0  0  0  0
 34 20  1  0  0  0  0
 38 23  1  0  0  0  0
 39 23  1  0  0  0  0
M  END
