omegapdb_1qxw_05.xyz
 OpenBabel11041815263D

 36 36  0  0  1  0  0  0  0  0999 V2000
    5.1443    0.8418    0.1502 C   0  0  0  0  0  0  0  0  0  0  0  0
    4.2684    1.3866   -0.9582 C   0  0  0  0  0  0  0  0  0  0  0  0
    3.6996    1.1099    0.4127 C   0  0  0  0  0  0  0  0  0  0  0  0
    2.8151    0.0028    0.6433 N   0  0  0  0  0  0  0  0  0  0  0  0
    1.4808    0.2156    0.0909 C   0  0  0  0  0  0  0  0  0  0  0  0
    0.6286   -0.9658    0.5217 C   0  0  0  0  0  0  0  0  0  0  0  0
   -0.8381   -0.9060    0.0886 C   0  0  1  0  0  0  0  0  0  0  0  0
   -1.3971   -2.2135    0.4497 N   0  0  0  0  0  0  0  0  0  0  0  0
   -1.5847    0.2946    0.6637 C   0  0  0  0  0  0  0  0  0  0  0  0
   -3.0717    0.3176    0.3203 C   0  0  0  0  0  0  0  0  0  0  0  0
   -3.3638    0.3480   -1.1755 C   0  0  0  0  0  0  0  0  0  0  0  0
   -4.8512    0.4984   -1.4671 C   0  0  0  0  0  0  0  0  0  0  0  0
    0.6304   -1.0611    1.9297 O   0  0  0  0  0  0  0  0  0  0  0  0
    1.2292   -2.0984   -0.0676 O   0  0  0  0  0  0  0  0  0  0  0  0
    5.8772    1.4969    0.5939 H   0  0  0  0  0  0  0  0  0  0  0  0
    5.4443   -0.1934    0.0768 H   0  0  0  0  0  0  0  0  0  0  0  0
    3.9933    0.6978   -1.7436 H   0  0  0  0  0  0  0  0  0  0  0  0
    4.4144    2.4102   -1.2675 H   0  0  0  0  0  0  0  0  0  0  0  0
    3.4665    1.9733    1.0216 H   0  0  0  0  0  0  0  0  0  0  0  0
    3.1976   -0.8418    0.2305 H   0  0  0  0  0  0  0  0  0  0  0  0
    1.4706    0.3045   -1.0015 H   0  0  0  0  0  0  0  0  0  0  0  0
    1.0821    1.1329    0.5212 H   0  0  0  0  0  0  0  0  0  0  0  0
   -0.8289   -0.8545   -1.0014 H   0  0  0  0  0  0  0  0  0  0  0  0
   -1.5231   -2.2526    1.4554 H   0  0  0  0  0  0  0  0  0  0  0  0
   -2.3055   -2.3454    0.0250 H   0  0  0  0  0  0  0  0  0  0  0  0
   -1.4493    0.2925    1.7463 H   0  0  0  0  0  0  0  0  0  0  0  0
   -1.1269    1.2126    0.2861 H   0  0  0  0  0  0  0  0  0  0  0  0
   -3.5240    1.1977    0.7833 H   0  0  0  0  0  0  0  0  0  0  0  0
   -3.5707   -0.5454    0.7687 H   0  0  0  0  0  0  0  0  0  0  0  0
   -2.8112    1.1738   -1.6308 H   0  0  0  0  0  0  0  0  0  0  0  0
   -2.9939   -0.5638   -1.6494 H   0  0  0  0  0  0  0  0  0  0  0  0
   -5.0529    0.5109   -2.5368 H   0  0  0  0  0  0  0  0  0  0  0  0
   -5.2363    1.4249   -1.0419 H   0  0  0  0  0  0  0  0  0  0  0  0
   -5.4160   -0.3249   -1.0297 H   0  0  0  0  0  0  0  0  0  0  0  0
    1.5547   -0.8907    2.1723 H   0  0  0  0  0  0  0  0  0  0  0  0
    0.5484   -2.7864    0.0265 H   0  0  0  0  0  0  0  0  0  0  0  0
  1  3  1  0  0  0  0
  1 15  1  0  0  0  0
  2  1  1  0  0  0  0
  2  3  1  0  0  0  0
  3  4  1  0  0  0  0
  3 19  1  0  0  0  0
  5 22  1  0  0  0  0
  5  6  1  0  0  0  0
  5  4  1  0  0  0  0
  6 13  1  0  0  0  0
  7 23  1  6  0  0  0
  7  8  1  0  0  0  0
  7  6  1  0  0  0  0
  7  9  1  0  0  0  0
  8 24  1  0  0  0  0
  9 26  1  0  0  0  0
 10  9  1  0  0  0  0
 10 29  1  0  0  0  0
 10 28  1  0  0  0  0
 11 10  1  0  0  0  0
 12 11  1  0  0  0  0
 12 33  1  0  0  0  0
 12 34  1  0  0  0  0
 13 35  1  0  0  0  0
 14 36  1  0  0  0  0
 14  6  1  0  0  0  0
 16  1  1  0  0  0  0
 17  2  1  0  0  0  0
 18  2  1  0  0  0  0
 20  4  1  0  0  0  0
 21  5  1  0  0  0  0
 25  8  1  0  0  0  0
 27  9  1  0  0  0  0
 30 11  1  0  0  0  0
 31 11  1  0  0  0  0
 32 12  1  0  0  0  0
M  END
