omegapdb_1xom_10.xyz
 OpenBabel11041815263D

 50 52  0  0  1  0  0  0  0  0999 V2000
    6.0701    2.3490   -0.1633 O   0  0  0  0  0  0  0  0  0  0  0  0
    5.3792    1.3958   -0.8350 C   0  0  0  0  0  0  0  0  0  0  0  0
    5.9135    0.6079   -1.5822 O   0  0  0  0  0  0  0  0  0  0  0  0
    3.9151    1.4438   -0.4873 C   0  0  1  0  0  0  0  0  0  0  0  0
    3.0980    0.5121   -1.3878 C   0  0  0  0  0  0  0  0  0  0  0  0
    3.0130   -0.8869   -0.7936 C   0  0  0  0  0  0  0  0  0  0  0  0
    2.2562   -0.8929    0.5760 C   0  0  2  0  0  0  0  0  0  0  0  0
    2.3658    0.5009    1.2433 C   0  0  0  0  0  0  0  0  0  0  0  0
    3.7512    1.0831    1.0084 C   0  0  0  0  0  0  0  0  0  0  0  0
    2.9481   -1.8389    1.4517 C   0  0  0  0  0  0  0  0  0  0  0  0
    3.5308   -2.5777    2.1522 N   0  0  0  0  0  0  0  0  0  0  0  0
    0.8075   -1.3176    0.4097 C   0  0  0  0  0  0  0  0  0  0  0  0
    0.3321   -2.5388    0.8824 C   0  0  0  0  0  0  0  0  0  0  0  0
   -0.9930   -2.9273    0.6744 C   0  0  0  0  0  0  0  0  0  0  0  0
   -1.8747   -2.0991   -0.0185 C   0  0  0  0  0  0  0  0  0  0  0  0
   -3.1729   -2.3928   -0.2896 O   0  0  0  0  0  0  0  0  0  0  0  0
   -3.6281   -3.6656    0.1437 C   0  0  0  0  0  0  0  0  0  0  0  0
   -1.4070   -0.8566   -0.4899 C   0  0  0  0  0  0  0  0  0  0  0  0
   -0.0877   -0.4850   -0.2743 C   0  0  0  0  0  0  0  0  0  0  0  0
   -2.2275   -0.0270   -1.2061 O   0  0  0  0  0  0  0  0  0  0  0  0
   -3.2187    0.6201   -0.3949 C   0  0  0  0  0  0  0  0  0  0  0  0
   -4.1778    1.3833   -1.3034 C   0  0  0  0  0  0  0  0  0  0  0  0
   -4.6711    2.5814   -0.4594 C   0  0  0  0  0  0  0  0  0  0  0  0
   -3.9304    2.4664    0.8890 C   0  0  0  0  0  0  0  0  0  0  0  0
   -2.6651    1.6853    0.5431 C   0  0  0  0  0  0  0  0  0  0  0  0
    6.9981    2.2206   -0.4122 H   0  0  0  0  0  0  0  0  0  0  0  0
    3.5875    2.4758   -0.6241 H   0  0  0  0  0  0  0  0  0  0  0  0
    3.5633    0.4581   -2.3707 H   0  0  0  0  0  0  0  0  0  0  0  0
    2.0994    0.9234   -1.5297 H   0  0  0  0  0  0  0  0  0  0  0  0
    4.0270   -1.2625   -0.6510 H   0  0  0  0  0  0  0  0  0  0  0  0
    2.5080   -1.5737   -1.4718 H   0  0  0  0  0  0  0  0  0  0  0  0
    2.1446    0.4025    2.3062 H   0  0  0  0  0  0  0  0  0  0  0  0
    1.6077    1.1587    0.8167 H   0  0  0  0  0  0  0  0  0  0  0  0
    3.9235    1.9646    1.6226 H   0  0  0  0  0  0  0  0  0  0  0  0
    4.5006    0.3441    1.3041 H   0  0  0  0  0  0  0  0  0  0  0  0
    0.9929   -3.2058    1.4193 H   0  0  0  0  0  0  0  0  0  0  0  0
   -1.3208   -3.8835    1.0524 H   0  0  0  0  0  0  0  0  0  0  0  0
   -3.5754   -3.7565    1.2297 H   0  0  0  0  0  0  0  0  0  0  0  0
   -4.6619   -3.7351   -0.1766 H   0  0  0  0  0  0  0  0  0  0  0  0
   -3.0485   -4.4671   -0.3161 H   0  0  0  0  0  0  0  0  0  0  0  0
    0.2095    0.4773   -0.6670 H   0  0  0  0  0  0  0  0  0  0  0  0
   -3.7515   -0.1389    0.1830 H   0  0  0  0  0  0  0  0  0  0  0  0
   -3.6110    1.7174   -2.1720 H   0  0  0  0  0  0  0  0  0  0  0  0
   -4.9845    0.7483   -1.6615 H   0  0  0  0  0  0  0  0  0  0  0  0
   -5.7509    2.5782   -0.3277 H   0  0  0  0  0  0  0  0  0  0  0  0
   -4.4123    3.5187   -0.9494 H   0  0  0  0  0  0  0  0  0  0  0  0
   -4.5280    1.8899    1.5971 H   0  0  0  0  0  0  0  0  0  0  0  0
   -3.7286    3.4335    1.3450 H   0  0  0  0  0  0  0  0  0  0  0  0
   -2.1466    1.2752    1.4083 H   0  0  0  0  0  0  0  0  0  0  0  0
   -1.9686    2.3141   -0.0179 H   0  0  0  0  0  0  0  0  0  0  0  0
  2  4  1  0  0  0  0
  2  1  1  0  0  0  0
  3  2  2  0  0  0  0
  4 27  1  6  0  0  0
  4  9  1  0  0  0  0
  5  6  1  0  0  0  0
  5  4  1  0  0  0  0
  6 30  1  0  0  0  0
  6  7  1  0  0  0  0
  7 12  1  6  0  0  0
  7  8  1  0  0  0  0
  7 10  1  0  0  0  0
  8 32  1  0  0  0  0
  9  8  1  0  0  0  0
  9 35  1  0  0  0  0
  9 34  1  0  0  0  0
 10 11  3  0  0  0  0
 12 13  2  0  0  0  0
 13 36  1  0  0  0  0
 14 13  1  0  0  0  0
 14 37  1  0  0  0  0
 15 14  2  0  0  0  0
 16 15  1  0  0  0  0
 16 17  1  0  0  0  0
 17 38  1  0  0  0  0
 18 19  2  0  0  0  0
 18 15  1  0  0  0  0
 19 12  1  0  0  0  0
 20 18  1  0  0  0  0
 20 21  1  0  0  0  0
 21 42  1  0  0  0  0
 21 25  1  0  0  0  0
 22 23  1  0  0  0  0
 22 21  1  0  0  0  0
 23 45  1  0  0  0  0
 23 24  1  0  0  0  0
 24 48  1  0  0  0  0
 24 47  1  0  0  0  0
 25 24  1  0  0  0  0
 25 49  1  0  0  0  0
 26  1  1  0  0  0  0
 28  5  1  0  0  0  0
 29  5  1  0  0  0  0
 31  6  1  0  0  0  0
 33  8  1  0  0  0  0
 39 17  1  0  0  0  0
 40 17  1  0  0  0  0
 41 19  1  0  0  0  0
 43 22  1  0  0  0  0
 44 22  1  0  0  0  0
 46 23  1  0  0  0  0
 50 25  1  0  0  0  0
M  END
