omegapdb_1qxw_10.xyz
 OpenBabel11041815263D

 36 36  0  0  1  0  0  0  0  0999 V2000
    4.3752    0.0636   -0.3476 C   0  0  0  0  0  0  0  0  0  0  0  0
    4.9435   -0.1921    1.0256 C   0  0  0  0  0  0  0  0  0  0  0  0
    3.6503    0.5526    0.8664 C   0  0  0  0  0  0  0  0  0  0  0  0
    2.4502   -0.1338    1.2718 N   0  0  0  0  0  0  0  0  0  0  0  0
    1.2023    0.4994    0.8410 C   0  0  0  0  0  0  0  0  0  0  0  0
    0.7654   -0.0609   -0.5163 C   0  0  0  0  0  0  0  0  0  0  0  0
   -0.7485    0.0773   -0.7497 C   0  0  1  0  0  0  0  0  0  0  0  0
   -1.1361   -0.1538   -2.1397 N   0  0  0  0  0  0  0  0  0  0  0  0
   -1.5605   -0.8508    0.1555 C   0  0  0  0  0  0  0  0  0  0  0  0
   -2.8927   -0.2600    0.6095 C   0  0  0  0  0  0  0  0  0  0  0  0
   -3.8713    0.0574   -0.5141 C   0  0  0  0  0  0  0  0  0  0  0  0
   -5.1866    0.6059    0.0230 C   0  0  0  0  0  0  0  0  0  0  0  0
    1.4769    0.6995   -1.4906 O   0  0  0  0  0  0  0  0  0  0  0  0
    1.1099   -1.4134   -0.6166 O   0  0  0  0  0  0  0  0  0  0  0  0
    3.9343   -0.7733   -0.8647 H   0  0  0  0  0  0  0  0  0  0  0  0
    4.8547    0.7986   -0.9745 H   0  0  0  0  0  0  0  0  0  0  0  0
    5.8141    0.3635    1.3366 H   0  0  0  0  0  0  0  0  0  0  0  0
    4.8729   -1.1999    1.4050 H   0  0  0  0  0  0  0  0  0  0  0  0
    3.6730    1.6239    1.0434 H   0  0  0  0  0  0  0  0  0  0  0  0
    2.4480   -0.2347    2.2786 H   0  0  0  0  0  0  0  0  0  0  0  0
    0.4370    0.2757    1.5814 H   0  0  0  0  0  0  0  0  0  0  0  0
    1.2912    1.5853    0.7505 H   0  0  0  0  0  0  0  0  0  0  0  0
   -0.9971    1.1187   -0.5183 H   0  0  0  0  0  0  0  0  0  0  0  0
   -0.8598   -1.0941   -2.4025 H   0  0  0  0  0  0  0  0  0  0  0  0
   -0.6303    0.4846   -2.7424 H   0  0  0  0  0  0  0  0  0  0  0  0
   -1.7309   -1.7848   -0.3841 H   0  0  0  0  0  0  0  0  0  0  0  0
   -0.9754   -1.1223    1.0340 H   0  0  0  0  0  0  0  0  0  0  0  0
   -2.6993    0.6532    1.1822 H   0  0  0  0  0  0  0  0  0  0  0  0
   -3.3696   -0.9582    1.3033 H   0  0  0  0  0  0  0  0  0  0  0  0
   -4.0524   -0.8498   -1.0944 H   0  0  0  0  0  0  0  0  0  0  0  0
   -3.4207    0.7652   -1.2085 H   0  0  0  0  0  0  0  0  0  0  0  0
   -5.6624   -0.1080    0.6960 H   0  0  0  0  0  0  0  0  0  0  0  0
   -5.8878    0.8254   -0.7808 H   0  0  0  0  0  0  0  0  0  0  0  0
   -5.0231    1.5271    0.5831 H   0  0  0  0  0  0  0  0  0  0  0  0
    1.5562    0.1145   -2.2528 H   0  0  0  0  0  0  0  0  0  0  0  0
    1.8493   -1.5016    0.0182 H   0  0  0  0  0  0  0  0  0  0  0  0
  1  3  1  0  0  0  0
  1  2  1  0  0  0  0
  2 17  1  0  0  0  0
  2 18  1  0  0  0  0
  3  2  1  0  0  0  0
  3 19  1  0  0  0  0
  3  4  1  0  0  0  0
  4 20  1  0  0  0  0
  5  4  1  0  0  0  0
  5 21  1  0  0  0  0
  6  5  1  0  0  0  0
  7 23  1  1  0  0  0
  7  6  1  0  0  0  0
  7  9  1  0  0  0  0
  8  7  1  0  0  0  0
  9 10  1  0  0  0  0
  9 27  1  0  0  0  0
 10 28  1  0  0  0  0
 10 29  1  0  0  0  0
 11 12  1  0  0  0  0
 11 10  1  0  0  0  0
 12 34  1  0  0  0  0
 12 32  1  0  0  0  0
 13  6  1  0  0  0  0
 14  6  1  0  0  0  0
 14 36  1  0  0  0  0
 15  1  1  0  0  0  0
 16  1  1  0  0  0  0
 22  5  1  0  0  0  0
 24  8  1  0  0  0  0
 25  8  1  0  0  0  0
 26  9  1  0  0  0  0
 30 11  1  0  0  0  0
 31 11  1  0  0  0  0
 33 12  1  0  0  0  0
 35 13  1  0  0  0  0
M  END
