omegacsd_SPIRIL_03.xyz
 OpenBabel11041815263D

 57 60  0  0  1  0  0  0  0  0999 V2000
   -2.2884   -0.0522   -1.7256 C   0  0  0  0  0  0  0  0  0  0  0  0
   -2.8624   -1.0271   -0.6860 C   0  0  2  0  0  0  0  0  0  0  0  0
   -2.7710   -2.4479   -1.2372 C   0  0  0  0  0  0  0  0  0  0  0  0
   -1.7624   -3.0089   -1.6320 O   0  0  0  0  0  0  0  0  0  0  0  0
   -4.0198   -2.9779   -1.1949 N   0  0  0  0  0  0  0  0  0  0  0  0
   -5.0168   -2.1147   -0.6252 C   0  0  0  0  0  0  0  0  0  0  0  0
   -4.3100   -0.8513   -0.5332 N   0  0  0  0  0  0  0  0  0  0  0  0
   -4.9211    0.1914    0.1501 C   0  0  0  0  0  0  0  0  0  0  0  0
   -4.2479    1.3811    0.4916 C   0  0  0  0  0  0  0  0  0  0  0  0
   -4.9156    2.4146    1.1400 C   0  0  0  0  0  0  0  0  0  0  0  0
   -6.2640    2.3077    1.4715 C   0  0  0  0  0  0  0  0  0  0  0  0
   -6.9388    1.1369    1.1423 C   0  0  0  0  0  0  0  0  0  0  0  0
   -6.2824    0.0933    0.4968 C   0  0  0  0  0  0  0  0  0  0  0  0
   -2.1134   -0.9985    0.6601 C   0  0  0  0  0  0  0  0  0  0  0  0
   -0.6047   -0.9175    0.4785 C   0  0  0  0  0  0  0  0  0  0  0  0
   -0.2884    0.2257   -0.3697 N   0  0  0  0  0  0  0  0  0  0  0  0
    1.1233    0.5810   -0.3264 C   0  0  0  0  0  0  0  0  0  0  0  0
    2.1255   -0.4822   -0.8188 C   0  0  0  0  0  0  0  0  0  0  0  0
    3.5178    0.0556   -0.7285 C   0  0  0  0  0  0  0  0  0  0  0  0
    4.3462   -0.0560    0.3299 C   0  0  0  0  0  0  0  0  0  0  0  0
    5.6775    0.5831    0.3054 C   0  0  0  0  0  0  0  0  0  0  0  0
    5.8879    1.8056   -0.3490 C   0  0  0  0  0  0  0  0  0  0  0  0
    7.1452    2.3983   -0.3938 C   0  0  0  0  0  0  0  0  0  0  0  0
    8.2048    1.7633    0.2357 C   0  0  0  0  0  0  0  0  0  0  0  0
    8.0381    0.5655    0.9118 C   0  0  0  0  0  0  0  0  0  0  0  0
    6.7723   -0.0125    0.9479 C   0  0  0  0  0  0  0  0  0  0  0  0
    9.4231    2.3331    0.2020 F   0  0  0  0  0  0  0  0  0  0  0  0
    3.9925   -0.8409    1.5632 C   0  0  0  0  0  0  0  0  0  0  0  0
   -0.7664   -0.0256   -1.7249 C   0  0  0  0  0  0  0  0  0  0  0  0
   -2.6585    0.9493   -1.5214 H   0  0  0  0  0  0  0  0  0  0  0  0
   -2.6636   -0.3404   -2.7097 H   0  0  0  0  0  0  0  0  0  0  0  0
   -4.1885   -3.9365   -1.4496 H   0  0  0  0  0  0  0  0  0  0  0  0
   -5.8904   -2.0304   -1.2772 H   0  0  0  0  0  0  0  0  0  0  0  0
   -5.3524   -2.4714    0.3588 H   0  0  0  0  0  0  0  0  0  0  0  0
   -3.2027    1.5098    0.2622 H   0  0  0  0  0  0  0  0  0  0  0  0
   -4.3645    3.3120    1.3874 H   0  0  0  0  0  0  0  0  0  0  0  0
   -6.7743    3.1164    1.9744 H   0  0  0  0  0  0  0  0  0  0  0  0
   -7.9860    1.0233    1.3884 H   0  0  0  0  0  0  0  0  0  0  0  0
   -6.8455   -0.7960    0.2555 H   0  0  0  0  0  0  0  0  0  0  0  0
   -2.3813   -1.8924    1.2301 H   0  0  0  0  0  0  0  0  0  0  0  0
   -2.4426   -0.1357    1.2348 H   0  0  0  0  0  0  0  0  0  0  0  0
   -0.2280   -1.8598    0.0601 H   0  0  0  0  0  0  0  0  0  0  0  0
   -0.1338   -0.7648    1.4518 H   0  0  0  0  0  0  0  0  0  0  0  0
    1.2565    1.4901   -0.9182 H   0  0  0  0  0  0  0  0  0  0  0  0
    1.3737    0.8360    0.7065 H   0  0  0  0  0  0  0  0  0  0  0  0
    2.0160   -1.3928   -0.2319 H   0  0  0  0  0  0  0  0  0  0  0  0
    1.9019   -0.7434   -1.8535 H   0  0  0  0  0  0  0  0  0  0  0  0
    3.8742    0.6151   -1.5868 H   0  0  0  0  0  0  0  0  0  0  0  0
    5.0488    2.3121   -0.8062 H   0  0  0  0  0  0  0  0  0  0  0  0
    7.3072    3.3445   -0.8896 H   0  0  0  0  0  0  0  0  0  0  0  0
    8.8854    0.1026    1.3966 H   0  0  0  0  0  0  0  0  0  0  0  0
    6.6445   -0.9504    1.4700 H   0  0  0  0  0  0  0  0  0  0  0  0
    2.9330   -1.0800    1.6002 H   0  0  0  0  0  0  0  0  0  0  0  0
    4.2480   -0.2772    2.4604 H   0  0  0  0  0  0  0  0  0  0  0  0
    4.5440   -1.7821    1.6049 H   0  0  0  0  0  0  0  0  0  0  0  0
   -0.3801   -0.9685   -2.1302 H   0  0  0  0  0  0  0  0  0  0  0  0
   -0.4223    0.7876   -2.3667 H   0  0  0  0  0  0  0  0  0  0  0  0
  1 29  1  0  0  0  0
  1 30  1  0  0  0  0
  2  1  1  6  0  0  0
  2  7  1  0  0  0  0
  2 14  1  0  0  0  0
  3  5  1  0  0  0  0
  3  2  1  0  0  0  0
  4  3  2  0  0  0  0
  5  6  1  0  0  0  0
  6  7  1  0  0  0  0
  6 34  1  0  0  0  0
  7  8  1  0  0  0  0
  8  9  2  0  0  0  0
  8 13  1  0  0  0  0
  9 10  1  0  0  0  0
 10 36  1  0  0  0  0
 10 11  2  0  0  0  0
 11 37  1  0  0  0  0
 12 38  1  0  0  0  0
 12 11  1  0  0  0  0
 13 12  2  0  0  0  0
 14 40  1  0  0  0  0
 14 41  1  0  0  0  0
 15 14  1  0  0  0  0
 15 43  1  0  0  0  0
 16 17  1  0  0  0  0
 16 15  1  0  0  0  0
 17 45  1  0  0  0  0
 18 19  1  0  0  0  0
 18 17  1  0  0  0  0
 18 46  1  0  0  0  0
 19 20  2  0  0  0  0
 20 28  1  0  0  0  0
 21 20  1  0  0  0  0
 21 26  2  0  0  0  0
 22 21  1  0  0  0  0
 23 22  2  0  0  0  0
 23 24  1  0  0  0  0
 24 25  2  0  0  0  0
 25 26  1  0  0  0  0
 25 51  1  0  0  0  0
 26 52  1  0  0  0  0
 27 24  1  0  0  0  0
 28 53  1  0  0  0  0
 28 55  1  0  0  0  0
 28 54  1  0  0  0  0
 29 16  1  0  0  0  0
 31  1  1  0  0  0  0
 32  5  1  0  0  0  0
 33  6  1  0  0  0  0
 35  9  1  0  0  0  0
 39 13  1  0  0  0  0
 42 15  1  0  0  0  0
 44 17  1  0  0  0  0
 47 18  1  0  0  0  0
 48 19  1  0  0  0  0
 49 22  1  0  0  0  0
 50 23  1  0  0  0  0
 56 29  1  0  0  0  0
 57 29  1  0  0  0  0
M  END
