omegacsd_CEJTIU_11.xyz
 OpenBabel11041815263D

 41 42  0  0  0  0  0  0  0  0999 V2000
   -5.8894   -1.5315    0.1859 C   0  0  0  0  0  0  0  0  0  0  0  0
   -5.3872   -0.2211    0.5470 N   0  0  0  0  0  0  0  0  0  0  0  0
   -6.2263    0.8853    0.1304 C   0  0  0  0  0  0  0  0  0  0  0  0
   -4.0092   -0.0313    0.4543 C   0  0  0  0  0  0  0  0  0  0  0  0
   -3.1162   -1.1182    0.4478 C   0  0  0  0  0  0  0  0  0  0  0  0
   -1.7433   -0.9164    0.4116 C   0  0  0  0  0  0  0  0  0  0  0  0
   -1.1981    0.3688    0.3701 C   0  0  0  0  0  0  0  0  0  0  0  0
   -2.0684    1.4604    0.3536 C   0  0  0  0  0  0  0  0  0  0  0  0
   -3.4439    1.2540    0.3869 C   0  0  0  0  0  0  0  0  0  0  0  0
    0.2029    0.4789    0.3187 N   0  0  0  0  0  0  0  0  0  0  0  0
    0.9505    1.6324    0.3358 C   0  0  0  0  0  0  0  0  0  0  0  0
    0.5211    2.7580    0.4465 O   0  0  0  0  0  0  0  0  0  0  0  0
    2.3193    1.3201    0.1655 N   0  0  0  0  0  0  0  0  0  0  0  0
    3.3893    2.1398    0.4845 C   0  0  0  0  0  0  0  0  0  0  0  0
    3.3059    3.1899    1.0816 O   0  0  0  0  0  0  0  0  0  0  0  0
    4.7382    1.5986   -0.0019 C   0  0  0  0  0  0  0  0  0  0  0  0
    4.7613    0.1427   -0.3590 C   0  0  0  0  0  0  0  0  0  0  0  0
    4.9229   -0.8277    0.6364 C   0  0  0  0  0  0  0  0  0  0  0  0
    4.8742   -2.1837    0.3240 C   0  0  0  0  0  0  0  0  0  0  0  0
    4.6568   -2.5909   -0.9920 C   0  0  0  0  0  0  0  0  0  0  0  0
    4.4961   -1.6350   -1.9929 C   0  0  0  0  0  0  0  0  0  0  0  0
    4.5483   -0.2783   -1.6762 C   0  0  0  0  0  0  0  0  0  0  0  0
   -5.5045   -2.2905    0.8637 H   0  0  0  0  0  0  0  0  0  0  0  0
   -5.6293   -1.8205   -0.8408 H   0  0  0  0  0  0  0  0  0  0  0  0
   -6.9718   -1.5271    0.2827 H   0  0  0  0  0  0  0  0  0  0  0  0
   -6.0496    1.1863   -0.9101 H   0  0  0  0  0  0  0  0  0  0  0  0
   -6.0651    1.7506    0.7696 H   0  0  0  0  0  0  0  0  0  0  0  0
   -7.2667    0.5901    0.2365 H   0  0  0  0  0  0  0  0  0  0  0  0
   -3.4810   -2.1328    0.4752 H   0  0  0  0  0  0  0  0  0  0  0  0
   -1.0864   -1.7786    0.4066 H   0  0  0  0  0  0  0  0  0  0  0  0
   -1.6727    2.4613    0.3176 H   0  0  0  0  0  0  0  0  0  0  0  0
   -4.0771    2.1271    0.3690 H   0  0  0  0  0  0  0  0  0  0  0  0
    0.7057   -0.3871    0.4239 H   0  0  0  0  0  0  0  0  0  0  0  0
    2.5519    0.4471   -0.2829 H   0  0  0  0  0  0  0  0  0  0  0  0
    5.4503    1.8268    0.7895 H   0  0  0  0  0  0  0  0  0  0  0  0
    5.0117    2.2102   -0.8636 H   0  0  0  0  0  0  0  0  0  0  0  0
    5.0889   -0.5141    1.6597 H   0  0  0  0  0  0  0  0  0  0  0  0
    5.0074   -2.9206    1.1042 H   0  0  0  0  0  0  0  0  0  0  0  0
    4.6206   -3.6435   -1.2357 H   0  0  0  0  0  0  0  0  0  0  0  0
    4.3355   -1.9429   -3.0171 H   0  0  0  0  0  0  0  0  0  0  0  0
    4.4277    0.4635   -2.4564 H   0  0  0  0  0  0  0  0  0  0  0  0
  1 25  1  0  0  0  0
  1  2  1  0  0  0  0
  1 23  1  0  0  0  0
  3 28  1  0  0  0  0
  3  2  1  0  0  0  0
  3 27  1  0  0  0  0
  4  2  1  0  0  0  0
  5  4  1  0  0  0  0
  5 29  1  0  0  0  0
  6  5  2  0  0  0  0
  7  6  1  0  0  0  0
  8  7  2  0  0  0  0
  8  9  1  0  0  0  0
  9  4  2  0  0  0  0
 10 11  1  0  0  0  0
 10  7  1  0  0  0  0
 10 33  1  0  0  0  0
 11 12  2  0  0  0  0
 13 11  1  0  0  0  0
 13 14  1  0  0  0  0
 14 15  2  0  0  0  0
 16 14  1  0  0  0  0
 16 35  1  0  0  0  0
 17 16  1  0  0  0  0
 17 18  2  0  0  0  0
 18 37  1  0  0  0  0
 19 18  1  0  0  0  0
 19 38  1  0  0  0  0
 20 19  2  0  0  0  0
 21 22  2  0  0  0  0
 21 20  1  0  0  0  0
 22 17  1  0  0  0  0
 24  1  1  0  0  0  0
 26  3  1  0  0  0  0
 30  6  1  0  0  0  0
 31  8  1  0  0  0  0
 32  9  1  0  0  0  0
 34 13  1  0  0  0  0
 36 16  1  0  0  0  0
 39 20  1  0  0  0  0
 40 21  1  0  0  0  0
 41 22  1  0  0  0  0
M  END
