omegacsd_CUHNEY10_16.xyz
 OpenBabel11041815263D

 44 47  0  0  1  0  0  0  0  0999 V2000
    0.4479   -4.8962   -0.9123 Cl  0  0  0  0  0  0  0  0  0  0  0  0
   -0.3189   -3.3704   -0.6440 C   0  0  0  0  0  0  0  0  0  0  0  0
   -0.4466   -2.4634   -1.6938 C   0  0  0  0  0  0  0  0  0  0  0  0
   -1.0523   -1.2818   -1.5545 N   0  0  0  0  0  0  0  0  0  0  0  0
   -1.5749   -0.9921   -0.3603 C   0  0  0  0  0  0  0  0  0  0  0  0
   -2.2428    0.2454   -0.2494 N   0  0  0  0  0  0  0  0  0  0  0  0
   -3.1617    0.7122   -1.1935 C   0  0  0  0  0  0  0  0  0  0  0  0
   -3.6594    0.0841   -2.0977 O   0  0  0  0  0  0  0  0  0  0  0  0
   -3.4120    2.1293   -0.7821 C   0  0  0  0  0  0  0  0  0  0  0  0
   -4.2431    2.9956   -1.3593 N   0  0  0  0  0  0  0  0  0  0  0  0
   -4.2428    4.1954   -0.7567 C   0  0  0  0  0  0  0  0  0  0  0  0
   -3.4589    4.4966    0.3639 C   0  0  0  0  0  0  0  0  0  0  0  0
   -2.6317    3.6080    0.9407 N   0  0  0  0  0  0  0  0  0  0  0  0
   -2.6351    2.4277    0.3276 C   0  0  0  0  0  0  0  0  0  0  0  0
   -1.8181    1.2371    0.7224 C   0  0  2  0  0  0  0  0  0  0  0  0
   -0.4404    1.5282    0.5551 O   0  0  0  0  0  0  0  0  0  0  0  0
    0.3925    0.8255    1.3993 C   0  0  0  0  0  0  0  0  0  0  0  0
    0.0162    0.3012    2.4327 O   0  0  0  0  0  0  0  0  0  0  0  0
    1.6596    0.8501    0.9348 N   0  0  0  0  0  0  0  0  0  0  0  0
    1.9987    1.1309   -0.4578 C   0  0  0  0  0  0  0  0  0  0  0  0
    2.9406    0.0353   -0.9624 C   0  0  0  0  0  0  0  0  0  0  0  0
    2.5085   -1.2341   -0.4055 N   0  0  0  0  0  0  0  0  0  0  0  0
    2.8308   -1.2950    1.0204 C   0  0  0  0  0  0  0  0  0  0  0  0
    2.6589    0.0886    1.6582 C   0  0  0  0  0  0  0  0  0  0  0  0
    3.1000   -2.3602   -1.1029 C   0  0  0  0  0  0  0  0  0  0  0  0
   -1.4763   -1.8296    0.7518 C   0  0  0  0  0  0  0  0  0  0  0  0
   -0.8219   -3.0454    0.6105 C   0  0  0  0  0  0  0  0  0  0  0  0
   -0.0449   -2.6996   -2.6708 H   0  0  0  0  0  0  0  0  0  0  0  0
   -4.8941    4.9501   -1.1782 H   0  0  0  0  0  0  0  0  0  0  0  0
   -3.5031    5.4813    0.8103 H   0  0  0  0  0  0  0  0  0  0  0  0
   -1.9849    0.9162    1.7502 H   0  0  0  0  0  0  0  0  0  0  0  0
    1.0841    1.1184   -1.0409 H   0  0  0  0  0  0  0  0  0  0  0  0
    2.4632    2.1152   -0.5500 H   0  0  0  0  0  0  0  0  0  0  0  0
    2.8720   -0.0123   -2.0488 H   0  0  0  0  0  0  0  0  0  0  0  0
    3.9911    0.2591   -0.7140 H   0  0  0  0  0  0  0  0  0  0  0  0
    3.8691   -1.6261    1.1816 H   0  0  0  0  0  0  0  0  0  0  0  0
    2.1673   -2.0226    1.4901 H   0  0  0  0  0  0  0  0  0  0  0  0
    3.5942    0.6466    1.6173 H   0  0  0  0  0  0  0  0  0  0  0  0
    2.3521    0.0074    2.6959 H   0  0  0  0  0  0  0  0  0  0  0  0
    4.2005   -2.3320   -1.0832 H   0  0  0  0  0  0  0  0  0  0  0  0
    2.7702   -2.3668   -2.1410 H   0  0  0  0  0  0  0  0  0  0  0  0
    2.7756   -3.2875   -0.6346 H   0  0  0  0  0  0  0  0  0  0  0  0
   -1.9014   -1.5365    1.7001 H   0  0  0  0  0  0  0  0  0  0  0  0
   -0.7278   -3.7333    1.4383 H   0  0  0  0  0  0  0  0  0  0  0  0
  1  2  1  0  0  0  0
  2 27  2  0  0  0  0
  3  4  2  0  0  0  0
  3  2  1  0  0  0  0
  4  5  1  0  0  0  0
  5  6  1  0  0  0  0
  5 26  2  0  0  0  0
  6 15  1  0  0  0  0
  7  9  1  0  0  0  0
  7  6  1  0  0  0  0
  8  7  2  0  0  0  0
  9 14  1  0  0  0  0
 10  9  2  0  0  0  0
 10 11  1  0  0  0  0
 11 12  2  0  0  0  0
 12 30  1  0  0  0  0
 12 13  1  0  0  0  0
 14 15  1  0  0  0  0
 14 13  2  0  0  0  0
 15 31  1  1  0  0  0
 16 15  1  0  0  0  0
 16 17  1  0  0  0  0
 17 18  2  0  0  0  0
 19 17  1  0  0  0  0
 19 24  1  0  0  0  0
 20 19  1  0  0  0  0
 21 35  1  0  0  0  0
 21 20  1  0  0  0  0
 21 22  1  0  0  0  0
 22 23  1  0  0  0  0
 23 36  1  0  0  0  0
 23 37  1  0  0  0  0
 23 24  1  0  0  0  0
 24 39  1  0  0  0  0
 25 40  1  0  0  0  0
 25 42  1  0  0  0  0
 25 22  1  0  0  0  0
 26 43  1  0  0  0  0
 27 26  1  0  0  0  0
 27 44  1  0  0  0  0
 28  3  1  0  0  0  0
 29 11  1  0  0  0  0
 32 20  1  0  0  0  0
 33 20  1  0  0  0  0
 34 21  1  0  0  0  0
 38 24  1  0  0  0  0
 41 25  1  0  0  0  0
M  END
