omegacsd_FIBREN_14.xyz
 OpenBabel11041815263D

 39 41  0  0  1  0  0  0  0  0999 V2000
   -2.8379   -1.7963   -0.5318 N   0  0  0  0  0  0  0  0  0  0  0  0
   -1.7483   -1.7602   -1.3165 C   0  0  0  0  0  0  0  0  0  0  0  0
   -0.7936   -0.8036   -1.3294 N   0  0  0  0  0  0  0  0  0  0  0  0
   -0.8994    0.2329   -0.5010 C   0  0  0  0  0  0  0  0  0  0  0  0
   -1.9926    0.2965    0.3648 C   0  0  0  0  0  0  0  0  0  0  0  0
   -2.8922   -0.7507    0.2717 C   0  0  0  0  0  0  0  0  0  0  0  0
   -3.8738   -0.5211    1.1953 O   0  0  0  0  0  0  0  0  0  0  0  0
   -3.4968    0.6563    1.7908 C   0  0  0  0  0  0  0  0  0  0  0  0
   -2.3909    1.1893    1.3438 N   0  0  0  0  0  0  0  0  0  0  0  0
   -4.3845    1.1689    2.8554 C   0  0  0  0  0  0  0  0  0  0  0  0
    0.0528    1.2397   -0.5393 N   0  0  0  0  0  0  0  0  0  0  0  0
    1.4151    0.8614   -0.9603 C   0  0  1  0  0  0  0  0  0  0  0  0
    2.2386    2.1327   -1.1506 C   0  0  0  0  0  0  0  0  0  0  0  0
    1.8044    3.0269   -2.3033 C   0  0  0  0  0  0  0  0  0  0  0  0
    2.5915    3.6618   -2.9604 O   0  0  0  0  0  0  0  0  0  0  0  0
    0.4798    3.0873   -2.5400 O   0  0  0  0  0  0  0  0  0  0  0  0
    2.0465   -0.0984    0.0155 C   0  0  0  0  0  0  0  0  0  0  0  0
    2.2837    0.2824    1.3399 C   0  0  0  0  0  0  0  0  0  0  0  0
    2.8448   -0.6152    2.2437 C   0  0  0  0  0  0  0  0  0  0  0  0
    3.1760   -1.9055    1.8310 C   0  0  0  0  0  0  0  0  0  0  0  0
    2.9416   -2.2929    0.5137 C   0  0  0  0  0  0  0  0  0  0  0  0
    2.3752   -1.3935   -0.3877 C   0  0  0  0  0  0  0  0  0  0  0  0
   -1.5495   -2.8945   -2.2707 C   0  0  0  0  0  0  0  0  0  0  0  0
   -4.4679    0.4427    3.6618 H   0  0  0  0  0  0  0  0  0  0  0  0
   -5.3829    1.3493    2.4611 H   0  0  0  0  0  0  0  0  0  0  0  0
   -3.9725    2.0957    3.2400 H   0  0  0  0  0  0  0  0  0  0  0  0
    0.0344    1.7875    0.3159 H   0  0  0  0  0  0  0  0  0  0  0  0
    1.3022    0.3537   -1.9176 H   0  0  0  0  0  0  0  0  0  0  0  0
    3.2790    1.8723   -1.3280 H   0  0  0  0  0  0  0  0  0  0  0  0
    2.2151    2.7312   -0.2351 H   0  0  0  0  0  0  0  0  0  0  0  0
    0.0296    2.5021   -1.8948 H   0  0  0  0  0  0  0  0  0  0  0  0
    2.0336    1.2829    1.6736 H   0  0  0  0  0  0  0  0  0  0  0  0
    3.0257   -0.3093    3.2650 H   0  0  0  0  0  0  0  0  0  0  0  0
    3.6122   -2.6030    2.5326 H   0  0  0  0  0  0  0  0  0  0  0  0
    3.1925   -3.2938    0.1901 H   0  0  0  0  0  0  0  0  0  0  0  0
    2.1768   -1.6938   -1.4085 H   0  0  0  0  0  0  0  0  0  0  0  0
   -0.6249   -3.4200   -2.0344 H   0  0  0  0  0  0  0  0  0  0  0  0
   -2.3842   -3.5850   -2.2083 H   0  0  0  0  0  0  0  0  0  0  0  0
   -1.4590   -2.5171   -3.2877 H   0  0  0  0  0  0  0  0  0  0  0  0
  1  6  2  0  0  0  0
  2  1  1  0  0  0  0
  3  2  2  0  0  0  0
  3  4  1  0  0  0  0
  4  5  2  0  0  0  0
  5  9  1  0  0  0  0
  6  5  1  0  0  0  0
  6  7  1  0  0  0  0
  7  8  1  0  0  0  0
  8 10  1  0  0  0  0
  9  8  2  0  0  0  0
 10 26  1  0  0  0  0
 10 24  1  0  0  0  0
 11  4  1  0  0  0  0
 11 27  1  0  0  0  0
 12 28  1  6  0  0  0
 12 11  1  0  0  0  0
 12 17  1  0  0  0  0
 13 12  1  0  0  0  0
 13 30  1  0  0  0  0
 14 13  1  0  0  0  0
 15 14  2  0  0  0  0
 16 14  1  0  0  0  0
 16 31  1  0  0  0  0
 17 18  1  0  0  0  0
 18 32  1  0  0  0  0
 18 19  2  0  0  0  0
 19 33  1  0  0  0  0
 20 19  1  0  0  0  0
 20 34  1  0  0  0  0
 21 20  2  0  0  0  0
 22 17  2  0  0  0  0
 22 21  1  0  0  0  0
 23 38  1  0  0  0  0
 23 37  1  0  0  0  0
 23  2  1  0  0  0  0
 25 10  1  0  0  0  0
 29 13  1  0  0  0  0
 35 21  1  0  0  0  0
 36 22  1  0  0  0  0
 39 23  1  0  0  0  0
M  END
