omegapdb_2byh_04.xyz
 OpenBabel11041815263D

 40 42  0  0  0  0  0  0  0  0999 V2000
    3.8255    3.7397    2.0548 O   0  0  0  0  0  0  0  0  0  0  0  0
    4.0484    2.5387    2.1062 C   0  0  0  0  0  0  0  0  0  0  0  0
    5.2677    2.0034    2.8167 C   0  0  0  0  0  0  0  0  0  0  0  0
    3.1207    1.5629    1.4675 C   0  0  0  0  0  0  0  0  0  0  0  0
    1.9845    2.0516    0.8122 C   0  0  0  0  0  0  0  0  0  0  0  0
    1.0975    1.1792    0.2086 C   0  0  0  0  0  0  0  0  0  0  0  0
    1.3261   -0.2050    0.2403 C   0  0  0  0  0  0  0  0  0  0  0  0
    2.4591   -0.7053    0.8894 C   0  0  0  0  0  0  0  0  0  0  0  0
    3.3410    0.1835    1.4970 C   0  0  0  0  0  0  0  0  0  0  0  0
    0.3791   -1.0136   -0.3939 N   0  0  0  0  0  0  0  0  0  0  0  0
    0.2405   -2.3770   -0.3379 C   0  0  0  0  0  0  0  0  0  0  0  0
    1.0534   -3.1440    0.1603 O   0  0  0  0  0  0  0  0  0  0  0  0
   -1.0153   -2.8646   -0.9525 C   0  0  0  0  0  0  0  0  0  0  0  0
   -1.2535   -4.1851   -1.3755 C   0  0  0  0  0  0  0  0  0  0  0  0
   -2.4653   -4.3180   -1.9336 N   0  0  0  0  0  0  0  0  0  0  0  0
   -2.9941   -3.0907   -1.8579 N   0  0  0  0  0  0  0  0  0  0  0  0
   -2.1818   -2.1644   -1.2812 C   0  0  0  0  0  0  0  0  0  0  0  0
   -2.5785   -0.7716   -1.0793 C   0  0  0  0  0  0  0  0  0  0  0  0
   -2.8558    0.0692   -2.1633 C   0  0  0  0  0  0  0  0  0  0  0  0
   -3.2048    1.3935   -1.9491 C   0  0  0  0  0  0  0  0  0  0  0  0
   -3.5460    2.4490   -3.2818 Cl  0  0  0  0  0  0  0  0  0  0  0  0
   -3.2766    1.9149   -0.6501 C   0  0  0  0  0  0  0  0  0  0  0  0
   -3.6005    3.2019   -0.3984 O   0  0  0  0  0  0  0  0  0  0  0  0
   -3.0005    1.0821    0.4296 C   0  0  0  0  0  0  0  0  0  0  0  0
   -2.6619   -0.2508    0.2259 C   0  0  0  0  0  0  0  0  0  0  0  0
   -2.4098   -1.0034    1.3248 O   0  0  0  0  0  0  0  0  0  0  0  0
    5.8285    2.8389    3.2227 H   0  0  0  0  0  0  0  0  0  0  0  0
    5.8958    1.4401    2.1276 H   0  0  0  0  0  0  0  0  0  0  0  0
    4.9765    1.3303    3.6223 H   0  0  0  0  0  0  0  0  0  0  0  0
    1.8171    3.1193    0.7944 H   0  0  0  0  0  0  0  0  0  0  0  0
    0.2126    1.5594   -0.2898 H   0  0  0  0  0  0  0  0  0  0  0  0
    2.6336   -1.7679    0.9104 H   0  0  0  0  0  0  0  0  0  0  0  0
    4.2119   -0.2183    1.9953 H   0  0  0  0  0  0  0  0  0  0  0  0
   -0.3687   -0.5142   -0.8543 H   0  0  0  0  0  0  0  0  0  0  0  0
   -0.5889   -5.0281   -1.3049 H   0  0  0  0  0  0  0  0  0  0  0  0
   -3.9379   -2.9387   -2.1787 H   0  0  0  0  0  0  0  0  0  0  0  0
   -2.7762   -0.3085   -3.1738 H   0  0  0  0  0  0  0  0  0  0  0  0
   -3.7571    3.6357   -1.2497 H   0  0  0  0  0  0  0  0  0  0  0  0
   -3.0573    1.4760    1.4342 H   0  0  0  0  0  0  0  0  0  0  0  0
   -2.1888   -1.9005    1.0321 H   0  0  0  0  0  0  0  0  0  0  0  0
  1  2  2  0  0  0  0
  2  3  1  0  0  0  0
  3 27  1  0  0  0  0
  3 29  1  0  0  0  0
  4  9  1  0  0  0  0
  4  2  1  0  0  0  0
  5  4  2  0  0  0  0
  6  7  2  0  0  0  0
  6  5  1  0  0  0  0
  7  8  1  0  0  0  0
  8 32  1  0  0  0  0
  8  9  2  0  0  0  0
  9 33  1  0  0  0  0
 10 11  1  0  0  0  0
 10  7  1  0  0  0  0
 11 12  2  0  0  0  0
 13 11  1  0  0  0  0
 14 35  1  0  0  0  0
 14 13  1  0  0  0  0
 15 16  1  0  0  0  0
 15 14  2  0  0  0  0
 16 17  1  0  0  0  0
 17 18  1  0  0  0  0
 17 13  2  0  0  0  0
 18 25  2  0  0  0  0
 19 20  2  0  0  0  0
 19 18  1  0  0  0  0
 20 22  1  0  0  0  0
 21 20  1  0  0  0  0
 22 23  1  0  0  0  0
 22 24  2  0  0  0  0
 24 39  1  0  0  0  0
 25 24  1  0  0  0  0
 25 26  1  0  0  0  0
 28  3  1  0  0  0  0
 30  5  1  0  0  0  0
 31  6  1  0  0  0  0
 34 10  1  0  0  0  0
 36 16  1  0  0  0  0
 37 19  1  0  0  0  0
 38 23  1  0  0  0  0
 40 26  1  0  0  0  0
M  END
