omegapdb_1z1r_02.xyz
 OpenBabel11041815263D

 66 68  0  0  1  0  0  0  0  0999 V2000
    0.8801   -1.1659   -0.5436 C   0  0  2  0  0  0  0  0  0  0  0  0
    0.6654   -2.6276   -0.9478 C   0  0  0  0  0  0  0  0  0  0  0  0
   -0.6597   -3.0823   -0.4135 C   0  0  0  0  0  0  0  0  0  0  0  0
   -1.7779   -3.1817   -1.2406 C   0  0  0  0  0  0  0  0  0  0  0  0
   -3.0563   -3.3874   -0.7194 C   0  0  0  0  0  0  0  0  0  0  0  0
   -3.2273   -3.4792    0.6621 C   0  0  0  0  0  0  0  0  0  0  0  0
   -2.1089   -3.4391    1.4978 C   0  0  0  0  0  0  0  0  0  0  0  0
   -0.8453   -3.2420    0.9644 C   0  0  0  0  0  0  0  0  0  0  0  0
   -4.4259   -3.6526    1.2889 O   0  0  0  0  0  0  0  0  0  0  0  0
   -5.6028   -3.1796    0.6429 C   0  0  0  0  0  0  0  0  0  0  0  0
   -5.7839   -1.6668    0.7049 C   0  0  0  0  0  0  0  0  0  0  0  0
   -5.0972   -0.8238   -0.3681 C   0  0  0  0  0  0  0  0  0  0  0  0
   -3.7359   -0.2698    0.0206 C   0  0  0  0  0  0  0  0  0  0  0  0
   -3.2430   -0.3697    1.1322 O   0  0  0  0  0  0  0  0  0  0  0  0
   -3.1061    0.4036   -0.9992 N   0  0  0  0  0  0  0  0  0  0  0  0
   -1.9988    1.3099   -0.7428 C   0  0  2  0  0  0  0  0  0  0  0  0
   -0.7823    0.5864   -0.1666 C   0  0  0  0  0  0  0  0  0  0  0  0
   -0.2579    0.9449    0.8880 O   0  0  0  0  0  0  0  0  0  0  0  0
   -0.2670   -0.3793   -0.9563 N   0  0  0  0  0  0  0  0  0  0  0  0
   -2.3055    2.5270    0.1238 C   0  0  0  0  0  0  0  0  0  0  0  0
   -1.1635    3.5113   -0.0972 C   0  0  0  0  0  0  0  0  0  0  0  0
   -0.8652    3.8538   -1.2363 O   0  0  0  0  0  0  0  0  0  0  0  0
   -0.5353    3.9786    1.0119 N   0  0  0  0  0  0  0  0  0  0  0  0
    2.1864   -0.5930   -1.1123 C   0  0  2  0  0  0  0  0  0  0  0  0
    3.2867   -1.3351   -0.6139 O   0  0  0  0  0  0  0  0  0  0  0  0
    2.3805    0.8895   -0.8130 C   0  0  0  0  0  0  0  0  0  0  0  0
    2.5126    1.0420    0.6430 N   0  0  0  0  0  0  0  0  0  0  0  0
    3.1137    2.5089    1.1506 S   0  0  0  0  0  0  0  0  0  0  0  0
    2.6021    3.6072    0.3427 O   0  0  0  0  0  0  0  0  0  0  0  0
    2.9330    2.5276    2.5884 O   0  0  0  0  0  0  0  0  0  0  0  0
    4.8260    2.3061    0.7530 C   0  0  0  0  0  0  0  0  0  0  0  0
    5.5817    1.4053    1.5021 C   0  0  0  0  0  0  0  0  0  0  0  0
    6.9255    1.2369    1.1864 C   0  0  0  0  0  0  0  0  0  0  0  0
    7.4960    1.9601    0.1376 C   0  0  0  0  0  0  0  0  0  0  0  0
    6.7264    2.8599   -0.5967 C   0  0  0  0  0  0  0  0  0  0  0  0
    5.3780    3.0393   -0.2933 C   0  0  0  0  0  0  0  0  0  0  0  0
    0.9265   -1.1125    0.5469 H   0  0  0  0  0  0  0  0  0  0  0  0
    1.4975   -3.2122   -0.5588 H   0  0  0  0  0  0  0  0  0  0  0  0
    0.6860   -2.7087   -2.0386 H   0  0  0  0  0  0  0  0  0  0  0  0
   -1.6558   -3.0969   -2.3151 H   0  0  0  0  0  0  0  0  0  0  0  0
   -3.8956   -3.4703   -1.3935 H   0  0  0  0  0  0  0  0  0  0  0  0
   -2.2620   -3.5278    2.5639 H   0  0  0  0  0  0  0  0  0  0  0  0
    0.0066   -3.1770    1.6307 H   0  0  0  0  0  0  0  0  0  0  0  0
   -5.6674   -3.5475   -0.3844 H   0  0  0  0  0  0  0  0  0  0  0  0
   -6.4072   -3.6497    1.2044 H   0  0  0  0  0  0  0  0  0  0  0  0
   -6.8583   -1.4893    0.6325 H   0  0  0  0  0  0  0  0  0  0  0  0
   -5.4651   -1.3229    1.6892 H   0  0  0  0  0  0  0  0  0  0  0  0
   -5.0078   -1.3665   -1.3109 H   0  0  0  0  0  0  0  0  0  0  0  0
   -5.7179    0.0509   -0.5821 H   0  0  0  0  0  0  0  0  0  0  0  0
   -3.6595    0.6019   -1.8174 H   0  0  0  0  0  0  0  0  0  0  0  0
   -1.6895    1.6965   -1.7153 H   0  0  0  0  0  0  0  0  0  0  0  0
   -0.8694   -0.7382   -1.6823 H   0  0  0  0  0  0  0  0  0  0  0  0
   -2.4308    2.2398    1.1638 H   0  0  0  0  0  0  0  0  0  0  0  0
   -3.2186    2.9971   -0.2414 H   0  0  0  0  0  0  0  0  0  0  0  0
   -0.5925    3.4072    1.8378 H   0  0  0  0  0  0  0  0  0  0  0  0
    0.3663    4.4025    0.8419 H   0  0  0  0  0  0  0  0  0  0  0  0
    2.1776   -0.7241   -2.1975 H   0  0  0  0  0  0  0  0  0  0  0  0
    3.4939   -0.9267    0.2395 H   0  0  0  0  0  0  0  0  0  0  0  0
    3.3166    1.2021   -1.2773 H   0  0  0  0  0  0  0  0  0  0  0  0
    1.5729    1.4997   -1.2202 H   0  0  0  0  0  0  0  0  0  0  0  0
    1.5825    0.9547    1.0778 H   0  0  0  0  0  0  0  0  0  0  0  0
    5.1218    0.8669    2.3191 H   0  0  0  0  0  0  0  0  0  0  0  0
    7.5289    0.5452    1.7577 H   0  0  0  0  0  0  0  0  0  0  0  0
    8.5413    1.8242   -0.1028 H   0  0  0  0  0  0  0  0  0  0  0  0
    7.1736    3.4218   -1.4048 H   0  0  0  0  0  0  0  0  0  0  0  0
    4.7569    3.7362   -0.8378 H   0  0  0  0  0  0  0  0  0  0  0  0
  1 37  1  1  0  0  0
  2 38  1  0  0  0  0
  2  1  1  0  0  0  0
  2  3  1  0  0  0  0
  3  8  2  0  0  0  0
  4  5  2  0  0  0  0
  4  3  1  0  0  0  0
  5  6  1  0  0  0  0
  6  9  1  0  0  0  0
  6  7  2  0  0  0  0
  7 42  1  0  0  0  0
  8  7  1  0  0  0  0
  8 43  1  0  0  0  0
 10 11  1  0  0  0  0
 10 45  1  0  0  0  0
 10  9  1  0  0  0  0
 11 47  1  0  0  0  0
 12 13  1  0  0  0  0
 12 11  1  0  0  0  0
 13 14  2  0  0  0  0
 15 16  1  0  0  0  0
 15 13  1  0  0  0  0
 16 51  1  6  0  0  0
 16 17  1  0  0  0  0
 16 20  1  0  0  0  0
 17 18  2  0  0  0  0
 19  1  1  0  0  0  0
 19 17  1  0  0  0  0
 20 53  1  0  0  0  0
 21 20  1  0  0  0  0
 21 23  1  0  0  0  0
 22 21  2  0  0  0  0
 23 55  1  0  0  0  0
 24 57  1  6  0  0  0
 24 26  1  0  0  0  0
 24 25  1  0  0  0  0
 24  1  1  0  0  0  0
 25 58  1  0  0  0  0
 26 27  1  0  0  0  0
 27 61  1  0  0  0  0
 27 28  1  0  0  0  0
 28 30  2  0  0  0  0
 29 28  2  0  0  0  0
 31 28  1  0  0  0  0
 31 32  2  0  0  0  0
 32 62  1  0  0  0  0
 33 32  1  0  0  0  0
 33 63  1  0  0  0  0
 34 33  2  0  0  0  0
 35 36  2  0  0  0  0
 35 34  1  0  0  0  0
 36 31  1  0  0  0  0
 39  2  1  0  0  0  0
 40  4  1  0  0  0  0
 41  5  1  0  0  0  0
 44 10  1  0  0  0  0
 46 11  1  0  0  0  0
 48 12  1  0  0  0  0
 49 12  1  0  0  0  0
 50 15  1  0  0  0  0
 52 19  1  0  0  0  0
 54 20  1  0  0  0  0
 56 23  1  0  0  0  0
 59 26  1  0  0  0  0
 60 26  1  0  0  0  0
 64 34  1  0  0  0  0
 65 35  1  0  0  0  0
 66 36  1  0  0  0  0
M  END
