omegacsd_CUHNEY10_15.xyz
 OpenBabel11041815263D

 44 47  0  0  1  0  0  0  0  0999 V2000
   -2.5563   -5.9634   -0.9194 Cl  0  0  0  0  0  0  0  0  0  0  0  0
   -2.5919   -4.2455   -0.7435 C   0  0  0  0  0  0  0  0  0  0  0  0
   -2.8026   -3.4376   -1.8588 C   0  0  0  0  0  0  0  0  0  0  0  0
   -2.8196   -2.1045   -1.7908 N   0  0  0  0  0  0  0  0  0  0  0  0
   -2.6634   -1.5420   -0.5909 C   0  0  0  0  0  0  0  0  0  0  0  0
   -2.6897   -0.1352   -0.5537 N   0  0  0  0  0  0  0  0  0  0  0  0
   -3.5568    0.6610   -1.3156 C   0  0  0  0  0  0  0  0  0  0  0  0
   -4.4740    0.2913   -2.0079 O   0  0  0  0  0  0  0  0  0  0  0  0
   -3.1142    2.0599   -1.0197 C   0  0  0  0  0  0  0  0  0  0  0  0
   -3.6179    3.1849   -1.5250 N   0  0  0  0  0  0  0  0  0  0  0  0
   -2.9949    4.2831   -1.0680 C   0  0  0  0  0  0  0  0  0  0  0  0
   -1.9323    4.2467   -0.1562 C   0  0  0  0  0  0  0  0  0  0  0  0
   -1.4422    3.1026    0.3524 N   0  0  0  0  0  0  0  0  0  0  0  0
   -2.0695    2.0247   -0.1099 C   0  0  0  0  0  0  0  0  0  0  0  0
   -1.7514    0.6099    0.2602 C   0  0  2  0  0  0  0  0  0  0  0  0
   -0.4151    0.3057   -0.1086 O   0  0  0  0  0  0  0  0  0  0  0  0
    0.3360   -0.3224    0.8613 C   0  0  0  0  0  0  0  0  0  0  0  0
   -0.0990   -0.6226    1.9597 O   0  0  0  0  0  0  0  0  0  0  0  0
    1.5843   -0.5743    0.4061 N   0  0  0  0  0  0  0  0  0  0  0  0
    2.5921   -0.9769    1.3813 C   0  0  0  0  0  0  0  0  0  0  0  0
    3.4082    0.2539    1.7758 C   0  0  0  0  0  0  0  0  0  0  0  0
    3.9938    0.9566    0.6378 N   0  0  0  0  0  0  0  0  0  0  0  0
    2.9674    1.2721   -0.3512 C   0  0  0  0  0  0  0  0  0  0  0  0
    2.1472    0.0570   -0.7835 C   0  0  0  0  0  0  0  0  0  0  0  0
    5.1271    0.2493    0.0641 C   0  0  0  0  0  0  0  0  0  0  0  0
   -2.4501   -2.2703    0.5824 C   0  0  0  0  0  0  0  0  0  0  0  0
   -2.4015   -3.6551    0.5005 C   0  0  0  0  0  0  0  0  0  0  0  0
   -2.9439   -3.8812   -2.8357 H   0  0  0  0  0  0  0  0  0  0  0  0
   -3.3524    5.2340   -1.4410 H   0  0  0  0  0  0  0  0  0  0  0  0
   -1.4663    5.1657    0.1738 H   0  0  0  0  0  0  0  0  0  0  0  0
   -1.8656    0.4132    1.3260 H   0  0  0  0  0  0  0  0  0  0  0  0
    3.2212   -1.7404    0.9214 H   0  0  0  0  0  0  0  0  0  0  0  0
    2.0863   -1.4093    2.2397 H   0  0  0  0  0  0  0  0  0  0  0  0
    4.2087   -0.0241    2.4630 H   0  0  0  0  0  0  0  0  0  0  0  0
    2.7422    0.9467    2.2964 H   0  0  0  0  0  0  0  0  0  0  0  0
    3.4472    1.7336   -1.2157 H   0  0  0  0  0  0  0  0  0  0  0  0
    2.2831    2.0034    0.0875 H   0  0  0  0  0  0  0  0  0  0  0  0
    1.3489    0.3352   -1.4625 H   0  0  0  0  0  0  0  0  0  0  0  0
    2.7768   -0.6826   -1.2811 H   0  0  0  0  0  0  0  0  0  0  0  0
    5.5602    0.8585   -0.7280 H   0  0  0  0  0  0  0  0  0  0  0  0
    4.8959   -0.7367   -0.3596 H   0  0  0  0  0  0  0  0  0  0  0  0
    5.8838    0.1105    0.8350 H   0  0  0  0  0  0  0  0  0  0  0  0
   -2.3074   -1.7746    1.5306 H   0  0  0  0  0  0  0  0  0  0  0  0
   -2.2324   -4.2613    1.3785 H   0  0  0  0  0  0  0  0  0  0  0  0
  1  2  1  0  0  0  0
  2 27  2  0  0  0  0
  3  4  2  0  0  0  0
  3  2  1  0  0  0  0
  4  5  1  0  0  0  0
  5  6  1  0  0  0  0
  5 26  2  0  0  0  0
  6 15  1  0  0  0  0
  7  9  1  0  0  0  0
  7  6  1  0  0  0  0
  8  7  2  0  0  0  0
  9 14  2  0  0  0  0
 10 11  2  0  0  0  0
 10  9  1  0  0  0  0
 11 12  1  0  0  0  0
 12 30  1  0  0  0  0
 12 13  2  0  0  0  0
 14 15  1  0  0  0  0
 14 13  1  0  0  0  0
 15 31  1  1  0  0  0
 16 15  1  0  0  0  0
 16 17  1  0  0  0  0
 17 18  2  0  0  0  0
 19 17  1  0  0  0  0
 19 20  1  0  0  0  0
 20 21  1  0  0  0  0
 20 33  1  0  0  0  0
 21 35  1  0  0  0  0
 21 34  1  0  0  0  0
 22 21  1  0  0  0  0
 23 37  1  0  0  0  0
 23 22  1  0  0  0  0
 24 23  1  0  0  0  0
 24 19  1  0  0  0  0
 25 22  1  0  0  0  0
 25 42  1  0  0  0  0
 26 43  1  0  0  0  0
 27 26  1  0  0  0  0
 27 44  1  0  0  0  0
 28  3  1  0  0  0  0
 29 11  1  0  0  0  0
 32 20  1  0  0  0  0
 36 23  1  0  0  0  0
 38 24  1  0  0  0  0
 39 24  1  0  0  0  0
 40 25  1  0  0  0  0
 41 25  1  0  0  0  0
M  END
