omegapdb_1m5f_18.xyz
 OpenBabel11041815263D

 25 25  0  0  1  0  0  0  0  0999 V2000
   -0.3149   -2.7243   -0.8922 O   0  0  0  0  0  0  0  0  0  0  0  0
   -1.2656   -2.0290   -1.5753 C   0  0  0  0  0  0  0  0  0  0  0  0
   -1.6923   -2.3841   -2.6454 O   0  0  0  0  0  0  0  0  0  0  0  0
   -1.7112   -0.8384   -0.8208 C   0  0  0  0  0  0  0  0  0  0  0  0
   -2.9164   -0.3528   -1.1175 N   0  0  0  0  0  0  0  0  0  0  0  0
   -3.0878    0.7146   -0.2711 O   0  0  0  0  0  0  0  0  0  0  0  0
   -1.9975    0.8623    0.5141 C   0  0  0  0  0  0  0  0  0  0  0  0
   -1.0787   -0.1100    0.2167 C   0  0  0  0  0  0  0  0  0  0  0  0
    0.2804   -0.2564    0.8062 C   0  0  0  0  0  0  0  0  0  0  0  0
    1.3379    0.4212   -0.0680 C   0  0  2  0  0  0  0  0  0  0  0  0
    1.3697   -0.1862   -1.3865 N   0  0  0  0  0  0  0  0  0  0  0  0
    2.6639    0.4628    0.6817 C   0  0  0  0  0  0  0  0  0  0  0  0
    2.7892    0.4670    1.8848 O   0  0  0  0  0  0  0  0  0  0  0  0
    3.7194    0.5383   -0.1632 O   0  0  0  0  0  0  0  0  0  0  0  0
   -2.0165    1.9919    1.4731 C   0  0  0  0  0  0  0  0  0  0  0  0
   -0.1290   -3.4951   -1.4505 H   0  0  0  0  0  0  0  0  0  0  0  0
    0.5343   -1.3094    0.9186 H   0  0  0  0  0  0  0  0  0  0  0  0
    0.3140    0.1888    1.7983 H   0  0  0  0  0  0  0  0  0  0  0  0
    1.0505    1.4698   -0.1976 H   0  0  0  0  0  0  0  0  0  0  0  0
    1.6525   -1.1557   -1.3076 H   0  0  0  0  0  0  0  0  0  0  0  0
    2.0574    0.2744   -1.9687 H   0  0  0  0  0  0  0  0  0  0  0  0
    4.5004    0.6061    0.4072 H   0  0  0  0  0  0  0  0  0  0  0  0
   -1.1538    1.9304    2.1318 H   0  0  0  0  0  0  0  0  0  0  0  0
   -2.9200    1.9663    2.0796 H   0  0  0  0  0  0  0  0  0  0  0  0
   -1.9858    2.9480    0.9523 H   0  0  0  0  0  0  0  0  0  0  0  0
  2  1  1  0  0  0  0
  2  4  1  0  0  0  0
  3  2  2  0  0  0  0
  4  8  1  0  0  0  0
  5  4  2  0  0  0  0
  5  6  1  0  0  0  0
  6  7  1  0  0  0  0
  7 15  1  0  0  0  0
  8  7  2  0  0  0  0
  8  9  1  0  0  0  0
  9 17  1  0  0  0  0
  9 18  1  0  0  0  0
 10 19  1  6  0  0  0
 10 12  1  0  0  0  0
 10  9  1  0  0  0  0
 11 20  1  0  0  0  0
 11 10  1  0  0  0  0
 12 13  2  0  0  0  0
 14 22  1  0  0  0  0
 14 12  1  0  0  0  0
 15 24  1  0  0  0  0
 15 23  1  0  0  0  0
 16  1  1  0  0  0  0
 21 11  1  0  0  0  0
 25 15  1  0  0  0  0
M  END
