omegapdb_1gs5_20.xyz
 OpenBabel11041815263D

 24 23  0  0  1  0  0  0  0  0999 V2000
   -0.5594   -0.9490   -0.3063 C   0  0  2  0  0  0  0  0  0  0  0  0
   -1.0443   -1.6736    0.9357 C   0  0  0  0  0  0  0  0  0  0  0  0
   -1.7711   -1.1780    1.7617 O   0  0  0  0  0  0  0  0  0  0  0  0
   -0.5724   -2.9269    1.0987 O   0  0  0  0  0  0  0  0  0  0  0  0
    0.9642   -0.7718   -0.2756 C   0  0  0  0  0  0  0  0  0  0  0  0
    1.4320   -0.0340    0.9654 C   0  0  0  0  0  0  0  0  0  0  0  0
    2.9337    0.1436    0.9794 C   0  0  0  0  0  0  0  0  0  0  0  0
    3.6874   -0.3494    0.1816 O   0  0  0  0  0  0  0  0  0  0  0  0
    3.4136    0.9071    1.9953 O   0  0  0  0  0  0  0  0  0  0  0  0
   -1.2471    0.3154   -0.3696 N   0  0  0  0  0  0  0  0  0  0  0  0
   -1.4040    0.9431   -1.5725 C   0  0  0  0  0  0  0  0  0  0  0  0
   -0.8523    0.5370   -2.5872 O   0  0  0  0  0  0  0  0  0  0  0  0
   -2.2857    2.1657   -1.5549 C   0  0  0  0  0  0  0  0  0  0  0  0
   -0.8144   -1.5352   -1.1942 H   0  0  0  0  0  0  0  0  0  0  0  0
   -0.0195   -3.1622    0.3431 H   0  0  0  0  0  0  0  0  0  0  0  0
    1.4693   -1.7367   -0.3375 H   0  0  0  0  0  0  0  0  0  0  0  0
    1.2453   -0.2223   -1.1716 H   0  0  0  0  0  0  0  0  0  0  0  0
    0.9522    0.9450    1.0260 H   0  0  0  0  0  0  0  0  0  0  0  0
    1.1563   -0.5752    1.8756 H   0  0  0  0  0  0  0  0  0  0  0  0
    2.6748    1.2199    2.5296 H   0  0  0  0  0  0  0  0  0  0  0  0
   -1.8494    0.5314    0.4102 H   0  0  0  0  0  0  0  0  0  0  0  0
   -1.7435    2.9907   -2.0090 H   0  0  0  0  0  0  0  0  0  0  0  0
   -3.1615    1.9688   -2.1693 H   0  0  0  0  0  0  0  0  0  0  0  0
   -2.6043    2.4467   -0.5546 H   0  0  0  0  0  0  0  0  0  0  0  0
  1 14  1  6  0  0  0
  1  5  1  0  0  0  0
  1  2  1  0  0  0  0
  2  4  1  0  0  0  0
  2  3  2  0  0  0  0
  5  6  1  0  0  0  0
  6  7  1  0  0  0  0
  6 18  1  0  0  0  0
  6 19  1  0  0  0  0
  7  9  1  0  0  0  0
  8  7  2  0  0  0  0
  9 20  1  0  0  0  0
 10  1  1  0  0  0  0
 10 21  1  0  0  0  0
 11 13  1  0  0  0  0
 11 10  1  0  0  0  0
 12 11  2  0  0  0  0
 13 24  1  0  0  0  0
 15  4  1  0  0  0  0
 16  5  1  0  0  0  0
 17  5  1  0  0  0  0
 22 13  1  0  0  0  0
 23 13  1  0  0  0  0
M  END
