omegapdb_1m5f_07.xyz
 OpenBabel11041815263D

 25 25  0  0  1  0  0  0  0  0999 V2000
   -1.4122   -3.5969   -1.5168 O   0  0  0  0  0  0  0  0  0  0  0  0
   -0.6711   -2.7370   -0.8013 C   0  0  0  0  0  0  0  0  0  0  0  0
    0.4381   -3.0162   -0.4034 O   0  0  0  0  0  0  0  0  0  0  0  0
   -1.3093   -1.4289   -0.5451 C   0  0  0  0  0  0  0  0  0  0  0  0
   -2.5048   -1.1762   -1.0716 N   0  0  0  0  0  0  0  0  0  0  0  0
   -2.8130    0.0965   -0.6816 O   0  0  0  0  0  0  0  0  0  0  0  0
   -1.8057    0.6010    0.0737 C   0  0  0  0  0  0  0  0  0  0  0  0
   -0.8180   -0.3392    0.2041 C   0  0  0  0  0  0  0  0  0  0  0  0
    0.4872   -0.2389    0.9079 C   0  0  0  0  0  0  0  0  0  0  0  0
    1.6353    0.1122   -0.0526 C   0  0  2  0  0  0  0  0  0  0  0  0
    2.8945    0.0737    0.6923 N   0  0  0  0  0  0  0  0  0  0  0  0
    1.3922    1.5327   -0.5502 C   0  0  0  0  0  0  0  0  0  0  0  0
    0.6333    1.8026   -1.4506 O   0  0  0  0  0  0  0  0  0  0  0  0
    2.0379    2.4660    0.1680 O   0  0  0  0  0  0  0  0  0  0  0  0
   -1.9512    2.0013    0.5280 C   0  0  0  0  0  0  0  0  0  0  0  0
   -2.2483   -3.1516   -1.7336 H   0  0  0  0  0  0  0  0  0  0  0  0
    0.4429    0.5136    1.6974 H   0  0  0  0  0  0  0  0  0  0  0  0
    0.7193   -1.2012    1.3637 H   0  0  0  0  0  0  0  0  0  0  0  0
    1.5971   -0.5657   -0.9047 H   0  0  0  0  0  0  0  0  0  0  0  0
    3.6766   -0.0459    0.0593 H   0  0  0  0  0  0  0  0  0  0  0  0
    2.9061   -0.7217    1.3189 H   0  0  0  0  0  0  0  0  0  0  0  0
    2.6103    1.9431    0.7720 H   0  0  0  0  0  0  0  0  0  0  0  0
   -2.9404    2.1724    0.9476 H   0  0  0  0  0  0  0  0  0  0  0  0
   -1.2021    2.2216    1.2847 H   0  0  0  0  0  0  0  0  0  0  0  0
   -1.7946    2.6829   -0.3064 H   0  0  0  0  0  0  0  0  0  0  0  0
  1  2  1  0  0  0  0
  2  4  1  0  0  0  0
  2  3  2  0  0  0  0
  4  8  1  0  0  0  0
  5  6  1  0  0  0  0
  5  4  2  0  0  0  0
  6  7  1  0  0  0  0
  7  8  2  0  0  0  0
  7 15  1  0  0  0  0
  8  9  1  0  0  0  0
  9 18  1  0  0  0  0
  9 17  1  0  0  0  0
 10 19  1  6  0  0  0
 10 11  1  0  0  0  0
 10  9  1  0  0  0  0
 11 21  1  0  0  0  0
 12 10  1  0  0  0  0
 12 14  1  0  0  0  0
 13 12  2  0  0  0  0
 14 22  1  0  0  0  0
 15 23  1  0  0  0  0
 15 24  1  0  0  0  0
 16  1  1  0  0  0  0
 20 11  1  0  0  0  0
 25 15  1  0  0  0  0
M  END
