omegapdb_1qxw_03.xyz
 OpenBabel11041815263D

 36 36  0  0  1  0  0  0  0  0999 V2000
    3.8026    2.0024   -0.1887 C   0  0  0  0  0  0  0  0  0  0  0  0
    4.9576    1.1344    0.2443 C   0  0  0  0  0  0  0  0  0  0  0  0
    3.5466    0.6721    0.4605 C   0  0  0  0  0  0  0  0  0  0  0  0
    3.0836   -0.3694   -0.4080 N   0  0  0  0  0  0  0  0  0  0  0  0
    1.6512   -0.3928   -0.6589 C   0  0  0  0  0  0  0  0  0  0  0  0
    0.8314   -1.1458    0.3840 C   0  0  0  0  0  0  0  0  0  0  0  0
   -0.6446   -1.3115    0.0006 C   0  0  1  0  0  0  0  0  0  0  0  0
   -1.1880   -2.2832    0.9561 N   0  0  0  0  0  0  0  0  0  0  0  0
   -1.3967    0.0123   -0.0690 C   0  0  0  0  0  0  0  0  0  0  0  0
   -2.8519   -0.1440   -0.4915 C   0  0  0  0  0  0  0  0  0  0  0  0
   -3.5708    1.1921   -0.6283 C   0  0  0  0  0  0  0  0  0  0  0  0
   -5.0297    1.0291   -1.0331 C   0  0  0  0  0  0  0  0  0  0  0  0
    0.8284   -0.4790    1.6457 O   0  0  0  0  0  0  0  0  0  0  0  0
    1.4182   -2.4131    0.5193 O   0  0  0  0  0  0  0  0  0  0  0  0
    3.5954    2.8962    0.3786 H   0  0  0  0  0  0  0  0  0  0  0  0
    3.6057    2.0559   -1.2481 H   0  0  0  0  0  0  0  0  0  0  0  0
    5.5313    1.4414    1.1048 H   0  0  0  0  0  0  0  0  0  0  0  0
    5.5048    0.6282   -0.5350 H   0  0  0  0  0  0  0  0  0  0  0  0
    3.1827    0.7217    1.4822 H   0  0  0  0  0  0  0  0  0  0  0  0
    3.3917   -1.2816   -0.0933 H   0  0  0  0  0  0  0  0  0  0  0  0
    1.3061    0.6378   -0.7215 H   0  0  0  0  0  0  0  0  0  0  0  0
    1.4681   -0.8761   -1.6217 H   0  0  0  0  0  0  0  0  0  0  0  0
   -0.6594   -1.7909   -0.9814 H   0  0  0  0  0  0  0  0  0  0  0  0
   -1.3332   -1.8223    1.8477 H   0  0  0  0  0  0  0  0  0  0  0  0
   -2.0828   -2.6348    0.6439 H   0  0  0  0  0  0  0  0  0  0  0  0
   -1.3385    0.4983    0.9074 H   0  0  0  0  0  0  0  0  0  0  0  0
   -0.8964    0.6736   -0.7802 H   0  0  0  0  0  0  0  0  0  0  0  0
   -3.3884   -0.7577    0.2365 H   0  0  0  0  0  0  0  0  0  0  0  0
   -2.9000   -0.6778   -1.4462 H   0  0  0  0  0  0  0  0  0  0  0  0
   -3.0486    1.8053   -1.3659 H   0  0  0  0  0  0  0  0  0  0  0  0
   -3.5069    1.7295    0.3203 H   0  0  0  0  0  0  0  0  0  0  0  0
   -5.5732    0.4413   -0.2935 H   0  0  0  0  0  0  0  0  0  0  0  0
   -5.5304    1.9911   -1.1285 H   0  0  0  0  0  0  0  0  0  0  0  0
   -5.1107    0.5137   -1.9900 H   0  0  0  0  0  0  0  0  0  0  0  0
    1.6517   -0.7446    2.0707 H   0  0  0  0  0  0  0  0  0  0  0  0
    0.6928   -2.9523    0.8873 H   0  0  0  0  0  0  0  0  0  0  0  0
  1  2  1  0  0  0  0
  1 15  1  0  0  0  0
  1  3  1  0  0  0  0
  2  3  1  0  0  0  0
  2 17  1  0  0  0  0
  3 19  1  0  0  0  0
  4 20  1  0  0  0  0
  4  3  1  0  0  0  0
  5  4  1  0  0  0  0
  5  6  1  0  0  0  0
  6 14  1  0  0  0  0
  6 13  1  0  0  0  0
  7 23  1  6  0  0  0
  7  6  1  0  0  0  0
  7  8  1  0  0  0  0
  8 24  1  0  0  0  0
  9  7  1  0  0  0  0
  9 26  1  0  0  0  0
 10  9  1  0  0  0  0
 10 28  1  0  0  0  0
 11 10  1  0  0  0  0
 11 31  1  0  0  0  0
 12 11  1  0  0  0  0
 12 32  1  0  0  0  0
 13 35  1  0  0  0  0
 14 36  1  0  0  0  0
 16  1  1  0  0  0  0
 18  2  1  0  0  0  0
 21  5  1  0  0  0  0
 22  5  1  0  0  0  0
 25  8  1  0  0  0  0
 27  9  1  0  0  0  0
 29 10  1  0  0  0  0
 30 11  1  0  0  0  0
 33 12  1  0  0  0  0
 34 12  1  0  0  0  0
M  END
