omegapdb_1qxw_22.xyz
 OpenBabel11041815263D

 36 36  0  0  1  0  0  0  0  0999 V2000
    3.6471    1.7832   -0.5494 C   0  0  0  0  0  0  0  0  0  0  0  0
    4.2862    1.6087    0.8126 C   0  0  0  0  0  0  0  0  0  0  0  0
    2.8094    1.4549    0.6646 C   0  0  0  0  0  0  0  0  0  0  0  0
    2.2201    0.1573    0.8421 N   0  0  0  0  0  0  0  0  0  0  0  0
    1.1013   -0.0718   -0.0659 C   0  0  0  0  0  0  0  0  0  0  0  0
    0.2649   -1.2489    0.4187 C   0  0  0  0  0  0  0  0  0  0  0  0
   -0.5839   -1.8917   -0.6812 C   0  0  1  0  0  0  0  0  0  0  0  0
   -1.4341   -2.8709    0.0024 N   0  0  0  0  0  0  0  0  0  0  0  0
   -1.4468   -0.9447   -1.5182 C   0  0  0  0  0  0  0  0  0  0  0  0
   -2.6270   -0.2418   -0.8325 C   0  0  0  0  0  0  0  0  0  0  0  0
   -2.3276    1.1437   -0.2707 C   0  0  0  0  0  0  0  0  0  0  0  0
   -3.5820    1.8033    0.2879 C   0  0  0  0  0  0  0  0  0  0  0  0
   -0.5344   -0.8264    1.4871 O   0  0  0  0  0  0  0  0  0  0  0  0
    1.1289   -2.3011    0.8488 O   0  0  0  0  0  0  0  0  0  0  0  0
    3.5994    2.7776   -0.9665 H   0  0  0  0  0  0  0  0  0  0  0  0
    3.7993    0.9883   -1.2651 H   0  0  0  0  0  0  0  0  0  0  0  0
    4.8598    0.7079    0.9770 H   0  0  0  0  0  0  0  0  0  0  0  0
    4.6635    2.4841    1.3170 H   0  0  0  0  0  0  0  0  0  0  0  0
    2.1940    2.2539    1.0556 H   0  0  0  0  0  0  0  0  0  0  0  0
    2.9248   -0.5511    0.6705 H   0  0  0  0  0  0  0  0  0  0  0  0
    0.4808    0.8214   -0.0767 H   0  0  0  0  0  0  0  0  0  0  0  0
    1.4292   -0.2632   -1.0959 H   0  0  0  0  0  0  0  0  0  0  0  0
    0.1305   -2.3635   -1.3646 H   0  0  0  0  0  0  0  0  0  0  0  0
   -0.8593   -3.6403    0.3247 H   0  0  0  0  0  0  0  0  0  0  0  0
   -2.1216   -3.2486   -0.6378 H   0  0  0  0  0  0  0  0  0  0  0  0
   -1.8376   -1.5575   -2.3352 H   0  0  0  0  0  0  0  0  0  0  0  0
   -0.8024   -0.2028   -1.9949 H   0  0  0  0  0  0  0  0  0  0  0  0
   -3.4280   -0.1344   -1.5684 H   0  0  0  0  0  0  0  0  0  0  0  0
   -3.0260   -0.8783   -0.0407 H   0  0  0  0  0  0  0  0  0  0  0  0
   -1.9080    1.7662   -1.0657 H   0  0  0  0  0  0  0  0  0  0  0  0
   -1.5793    1.0645    0.5145 H   0  0  0  0  0  0  0  0  0  0  0  0
   -3.3717    2.7965    0.6818 H   0  0  0  0  0  0  0  0  0  0  0  0
   -4.0006    1.2058    1.0979 H   0  0  0  0  0  0  0  0  0  0  0  0
   -4.3484    1.9024   -0.4814 H   0  0  0  0  0  0  0  0  0  0  0  0
   -1.2211   -1.5153    1.5378 H   0  0  0  0  0  0  0  0  0  0  0  0
    1.5006   -1.9674    1.6770 H   0  0  0  0  0  0  0  0  0  0  0  0
  1  3  1  0  0  0  0
  1  2  1  0  0  0  0
  2 17  1  0  0  0  0
  2 18  1  0  0  0  0
  3  2  1  0  0  0  0
  3  4  1  0  0  0  0
  3 19  1  0  0  0  0
  5  6  1  0  0  0  0
  5  4  1  0  0  0  0
  6 14  1  0  0  0  0
  6 13  1  0  0  0  0
  7 23  1  6  0  0  0
  7  8  1  0  0  0  0
  7  6  1  0  0  0  0
  8 24  1  0  0  0  0
  9 10  1  0  0  0  0
  9  7  1  0  0  0  0
 10 11  1  0  0  0  0
 10 29  1  0  0  0  0
 11 12  1  0  0  0  0
 11 31  1  0  0  0  0
 12 32  1  0  0  0  0
 12 33  1  0  0  0  0
 13 35  1  0  0  0  0
 14 36  1  0  0  0  0
 15  1  1  0  0  0  0
 16  1  1  0  0  0  0
 20  4  1  0  0  0  0
 21  5  1  0  0  0  0
 22  5  1  0  0  0  0
 25  8  1  0  0  0  0
 26  9  1  0  0  0  0
 27  9  1  0  0  0  0
 28 10  1  0  0  0  0
 30 11  1  0  0  0  0
 34 12  1  0  0  0  0
M  END
