omegapdb_1xom_00.xyz
 OpenBabel11041815263D

 50 52  0  0  1  0  0  0  0  0999 V2000
    5.6878    2.8763   -0.4312 O   0  0  0  0  0  0  0  0  0  0  0  0
    5.6330    1.5805   -0.0312 C   0  0  0  0  0  0  0  0  0  0  0  0
    6.6235    0.9068    0.1332 O   0  0  0  0  0  0  0  0  0  0  0  0
    4.2097    1.1250    0.1467 C   0  0  1  0  0  0  0  0  0  0  0  0
    3.5235    1.0247   -1.2228 C   0  0  0  0  0  0  0  0  0  0  0  0
    2.0769    0.5742   -1.0549 C   0  0  0  0  0  0  0  0  0  0  0  0
    1.9781   -0.7824   -0.3305 C   0  0  2  0  0  0  0  0  0  0  0  0
    2.7038   -0.6767    1.0303 C   0  0  0  0  0  0  0  0  0  0  0  0
    4.1452   -0.2058    0.8835 C   0  0  0  0  0  0  0  0  0  0  0  0
    2.6854   -1.7698   -1.1496 C   0  0  0  0  0  0  0  0  0  0  0  0
    3.2724   -2.5454   -1.8056 N   0  0  0  0  0  0  0  0  0  0  0  0
    0.5457   -1.2393   -0.1131 C   0  0  0  0  0  0  0  0  0  0  0  0
    0.1940   -2.5813   -0.2102 C   0  0  0  0  0  0  0  0  0  0  0  0
   -1.1098   -2.9997    0.0682 C   0  0  0  0  0  0  0  0  0  0  0  0
   -2.0821   -2.0804    0.4496 C   0  0  0  0  0  0  0  0  0  0  0  0
   -3.3761   -2.3764    0.7267 O   0  0  0  0  0  0  0  0  0  0  0  0
   -3.7348   -3.7444    0.6230 C   0  0  0  0  0  0  0  0  0  0  0  0
   -1.7331   -0.7168    0.5616 C   0  0  0  0  0  0  0  0  0  0  0  0
   -0.4313   -0.3136    0.2808 C   0  0  0  0  0  0  0  0  0  0  0  0
   -2.7317    0.1059    0.9701 O   0  0  0  0  0  0  0  0  0  0  0  0
   -2.5582    1.5175    0.7843 C   0  0  0  0  0  0  0  0  0  0  0  0
   -2.5847    1.8668   -0.6986 C   0  0  0  0  0  0  0  0  0  0  0  0
   -4.0436    1.5869   -1.0919 C   0  0  0  0  0  0  0  0  0  0  0  0
   -4.8730    1.8222    0.1961 C   0  0  0  0  0  0  0  0  0  0  0  0
   -3.8443    2.1403    1.2965 C   0  0  0  0  0  0  0  0  0  0  0  0
    6.6305    3.0698   -0.5472 H   0  0  0  0  0  0  0  0  0  0  0  0
    3.6922    1.8979    0.7233 H   0  0  0  0  0  0  0  0  0  0  0  0
    4.0683    0.3117   -1.8465 H   0  0  0  0  0  0  0  0  0  0  0  0
    3.5552    1.9914   -1.7240 H   0  0  0  0  0  0  0  0  0  0  0  0
    1.5500    1.3194   -0.4564 H   0  0  0  0  0  0  0  0  0  0  0  0
    1.5721    0.5077   -2.0198 H   0  0  0  0  0  0  0  0  0  0  0  0
    2.1294    0.0270    1.6394 H   0  0  0  0  0  0  0  0  0  0  0  0
    2.6595   -1.6465    1.5277 H   0  0  0  0  0  0  0  0  0  0  0  0
    4.7284   -0.9450    0.3320 H   0  0  0  0  0  0  0  0  0  0  0  0
    4.6094   -0.1129    1.8656 H   0  0  0  0  0  0  0  0  0  0  0  0
    0.9266   -3.3135   -0.5214 H   0  0  0  0  0  0  0  0  0  0  0  0
   -1.3567   -4.0455   -0.0289 H   0  0  0  0  0  0  0  0  0  0  0  0
   -3.1607   -4.3575    1.3193 H   0  0  0  0  0  0  0  0  0  0  0  0
   -4.7874   -3.7943    0.8790 H   0  0  0  0  0  0  0  0  0  0  0  0
   -3.5884   -4.1163   -0.3923 H   0  0  0  0  0  0  0  0  0  0  0  0
   -0.1830    0.7319    0.3702 H   0  0  0  0  0  0  0  0  0  0  0  0
   -1.6706    1.8589    1.3213 H   0  0  0  0  0  0  0  0  0  0  0  0
   -2.3497    2.9282   -0.8020 H   0  0  0  0  0  0  0  0  0  0  0  0
   -1.8645    1.3029   -1.2880 H   0  0  0  0  0  0  0  0  0  0  0  0
   -4.1415    0.5510   -1.4102 H   0  0  0  0  0  0  0  0  0  0  0  0
   -4.3665    2.2160   -1.9184 H   0  0  0  0  0  0  0  0  0  0  0  0
   -5.5910    2.6313    0.0798 H   0  0  0  0  0  0  0  0  0  0  0  0
   -5.4288    0.9237    0.4522 H   0  0  0  0  0  0  0  0  0  0  0  0
   -3.6910    3.2165    1.3853 H   0  0  0  0  0  0  0  0  0  0  0  0
   -4.1182    1.7514    2.2745 H   0  0  0  0  0  0  0  0  0  0  0  0
  1  2  1  0  0  0  0
  2  3  2  0  0  0  0
  2  4  1  0  0  0  0
  4 27  1  1  0  0  0
  4  9  1  0  0  0  0
  5  6  1  0  0  0  0
  5  4  1  0  0  0  0
  6 30  1  0  0  0  0
  6  7  1  0  0  0  0
  7 10  1  6  0  0  0
  7 12  1  0  0  0  0
  7  8  1  0  0  0  0
  8 33  1  0  0  0  0
  8 32  1  0  0  0  0
  9  8  1  0  0  0  0
  9 35  1  0  0  0  0
 11 10  3  0  0  0  0
 12 19  1  0  0  0  0
 13 12  2  0  0  0  0
 13 14  1  0  0  0  0
 14 15  2  0  0  0  0
 15 18  1  0  0  0  0
 15 16  1  0  0  0  0
 17 16  1  0  0  0  0
 17 39  1  0  0  0  0
 17 38  1  0  0  0  0
 18 20  1  0  0  0  0
 19 41  1  0  0  0  0
 19 18  2  0  0  0  0
 21 20  1  0  0  0  0
 21 25  1  0  0  0  0
 21 42  1  0  0  0  0
 22 21  1  0  0  0  0
 23 22  1  0  0  0  0
 23 24  1  0  0  0  0
 24 48  1  0  0  0  0
 24 25  1  0  0  0  0
 25 49  1  0  0  0  0
 25 50  1  0  0  0  0
 26  1  1  0  0  0  0
 28  5  1  0  0  0  0
 29  5  1  0  0  0  0
 31  6  1  0  0  0  0
 34  9  1  0  0  0  0
 36 13  1  0  0  0  0
 37 14  1  0  0  0  0
 40 17  1  0  0  0  0
 43 22  1  0  0  0  0
 44 22  1  0  0  0  0
 45 23  1  0  0  0  0
 46 23  1  0  0  0  0
 47 24  1  0  0  0  0
M  END
