omegacsd_CDBMPI10_09.xyz
 OpenBabel11041815263D

 46 48  0  0  1  0  0  0  0  0999 V2000
    3.0987    2.0557    0.7159 O   0  0  0  0  0  0  0  0  0  0  0  0
    2.6530    1.0045    0.2607 C   0  0  0  0  0  0  0  0  0  0  0  0
    1.4586    0.9337   -0.4202 N   0  0  0  0  0  0  0  0  0  0  0  0
    0.6197   -0.2686   -0.3736 C   0  0  1  0  0  0  0  0  0  0  0  0
   -0.4565   -0.0950    0.7106 C   0  0  0  0  0  0  0  0  0  0  0  0
   -1.2055    1.1434    0.5119 N   0  0  0  0  0  0  0  0  0  0  0  0
   -0.3031    2.3074    0.5690 C   0  0  1  0  0  0  0  0  0  0  0  0
    0.7199    2.1891   -0.5540 C   0  0  0  0  0  0  0  0  0  0  0  0
   -0.9988    3.6557    0.6136 C   0  0  0  0  0  0  0  0  0  0  0  0
   -2.2807    1.1467   -0.3509 C   0  0  0  0  0  0  0  0  0  0  0  0
   -2.5230    2.0597   -1.1362 O   0  0  0  0  0  0  0  0  0  0  0  0
   -3.2086   -0.0214   -0.2435 C   0  0  0  0  0  0  0  0  0  0  0  0
   -3.5683   -0.5713    0.9904 C   0  0  0  0  0  0  0  0  0  0  0  0
   -4.4903   -1.6129    1.0467 C   0  0  0  0  0  0  0  0  0  0  0  0
   -5.0457   -2.1194   -0.1277 C   0  0  0  0  0  0  0  0  0  0  0  0
   -4.6926   -1.5667   -1.3585 C   0  0  0  0  0  0  0  0  0  0  0  0
   -3.7865   -0.5122   -1.4161 C   0  0  0  0  0  0  0  0  0  0  0  0
    0.0174   -0.5787   -1.7366 C   0  0  0  0  0  0  0  0  0  0  0  0
    3.4406   -0.2608    0.3705 C   0  0  0  0  0  0  0  0  0  0  0  0
    4.0732   -0.5421    1.5831 C   0  0  0  0  0  0  0  0  0  0  0  0
    4.8592   -1.6834    1.7115 C   0  0  0  0  0  0  0  0  0  0  0  0
    5.0407   -2.5346    0.6219 C   0  0  0  0  0  0  0  0  0  0  0  0
    4.4335   -2.2405   -0.5982 C   0  0  0  0  0  0  0  0  0  0  0  0
    3.6288   -1.1113   -0.7230 C   0  0  0  0  0  0  0  0  0  0  0  0
    1.2537   -1.0980   -0.0665 H   0  0  0  0  0  0  0  0  0  0  0  0
   -1.1310   -0.9472    0.6918 H   0  0  0  0  0  0  0  0  0  0  0  0
    0.0243   -0.0507    1.6910 H   0  0  0  0  0  0  0  0  0  0  0  0
    0.2429    2.1787    1.5083 H   0  0  0  0  0  0  0  0  0  0  0  0
    0.2079    2.2130   -1.5158 H   0  0  0  0  0  0  0  0  0  0  0  0
    1.4410    3.0003   -0.5042 H   0  0  0  0  0  0  0  0  0  0  0  0
   -1.3701    3.9548   -0.3599 H   0  0  0  0  0  0  0  0  0  0  0  0
   -0.2851    4.3957    0.9736 H   0  0  0  0  0  0  0  0  0  0  0  0
   -1.8390    3.6261    1.3058 H   0  0  0  0  0  0  0  0  0  0  0  0
   -3.1398   -0.1653    1.8976 H   0  0  0  0  0  0  0  0  0  0  0  0
   -4.7779   -2.0262    2.0038 H   0  0  0  0  0  0  0  0  0  0  0  0
   -5.7565   -2.9331   -0.0831 H   0  0  0  0  0  0  0  0  0  0  0  0
   -5.1299   -1.9523   -2.2694 H   0  0  0  0  0  0  0  0  0  0  0  0
   -3.5238   -0.0515   -2.3587 H   0  0  0  0  0  0  0  0  0  0  0  0
   -0.5925   -1.4803   -1.6809 H   0  0  0  0  0  0  0  0  0  0  0  0
    0.8084   -0.7380   -2.4676 H   0  0  0  0  0  0  0  0  0  0  0  0
   -0.6159    0.2309   -2.0953 H   0  0  0  0  0  0  0  0  0  0  0  0
    3.9483    0.1452    2.4085 H   0  0  0  0  0  0  0  0  0  0  0  0
    5.3378   -1.9047    2.6556 H   0  0  0  0  0  0  0  0  0  0  0  0
    5.6597   -3.4158    0.7198 H   0  0  0  0  0  0  0  0  0  0  0  0
    4.5893   -2.8874   -1.4508 H   0  0  0  0  0  0  0  0  0  0  0  0
    3.1646   -0.8708   -1.6707 H   0  0  0  0  0  0  0  0  0  0  0  0
  2 19  1  0  0  0  0
  2  1  2  0  0  0  0
  3  4  1  0  0  0  0
  3  2  1  0  0  0  0
  4 25  1  1  0  0  0
  4  5  1  0  0  0  0
  5 27  1  0  0  0  0
  6  7  1  0  0  0  0
  6  5  1  0  0  0  0
  7  9  1  0  0  0  0
  7 28  1  1  0  0  0
  8 30  1  0  0  0  0
  8  3  1  0  0  0  0
  8  7  1  0  0  0  0
  9 32  1  0  0  0  0
  9 33  1  0  0  0  0
 10 12  1  0  0  0  0
 10  6  1  0  0  0  0
 11 10  2  0  0  0  0
 12 13  2  0  0  0  0
 13 14  1  0  0  0  0
 13 34  1  0  0  0  0
 14 35  1  0  0  0  0
 15 36  1  0  0  0  0
 15 14  2  0  0  0  0
 16 15  1  0  0  0  0
 17 16  2  0  0  0  0
 17 12  1  0  0  0  0
 18 39  1  0  0  0  0
 18  4  1  0  0  0  0
 19 20  2  0  0  0  0
 20 21  1  0  0  0  0
 20 42  1  0  0  0  0
 21 43  1  0  0  0  0
 22 44  1  0  0  0  0
 22 21  2  0  0  0  0
 23 22  1  0  0  0  0
 24 23  2  0  0  0  0
 24 19  1  0  0  0  0
 26  5  1  0  0  0  0
 29  8  1  0  0  0  0
 31  9  1  0  0  0  0
 37 16  1  0  0  0  0
 38 17  1  0  0  0  0
 40 18  1  0  0  0  0
 41 18  1  0  0  0  0
 45 23  1  0  0  0  0
 46 24  1  0  0  0  0
M  END
