omegapdb_1gs5_02.xyz
 OpenBabel11041815263D

 24 23  0  0  1  0  0  0  0  0999 V2000
   -0.2727   -0.9661   -0.6002 C   0  0  2  0  0  0  0  0  0  0  0  0
   -0.8755   -1.4059    0.7221 C   0  0  0  0  0  0  0  0  0  0  0  0
   -1.0741   -0.6865    1.6719 O   0  0  0  0  0  0  0  0  0  0  0  0
   -1.0786   -2.7408    0.7396 O   0  0  0  0  0  0  0  0  0  0  0  0
    1.2479   -1.1752   -0.5584 C   0  0  0  0  0  0  0  0  0  0  0  0
    1.9623   -0.7210    0.7100 C   0  0  0  0  0  0  0  0  0  0  0  0
    2.0743    0.7654    0.8984 C   0  0  0  0  0  0  0  0  0  0  0  0
    1.7630    1.6237    0.0975 O   0  0  0  0  0  0  0  0  0  0  0  0
    2.6190    1.0604    2.0925 O   0  0  0  0  0  0  0  0  0  0  0  0
   -0.6157    0.3993   -0.8875 N   0  0  0  0  0  0  0  0  0  0  0  0
   -1.9330    0.7202   -1.0093 C   0  0  0  0  0  0  0  0  0  0  0  0
   -2.8056   -0.1407   -0.9982 O   0  0  0  0  0  0  0  0  0  0  0  0
   -2.2334    2.1889   -1.1624 C   0  0  0  0  0  0  0  0  0  0  0  0
   -0.6928   -1.6069   -1.3744 H   0  0  0  0  0  0  0  0  0  0  0  0
   -1.4334   -2.9404    1.6195 H   0  0  0  0  0  0  0  0  0  0  0  0
    1.4298   -2.2432   -0.6700 H   0  0  0  0  0  0  0  0  0  0  0  0
    1.6790   -0.6797   -1.4284 H   0  0  0  0  0  0  0  0  0  0  0  0
    1.5022   -1.1324    1.6078 H   0  0  0  0  0  0  0  0  0  0  0  0
    2.9871   -1.0978    0.7028 H   0  0  0  0  0  0  0  0  0  0  0  0
    2.6668    2.0277    2.1317 H   0  0  0  0  0  0  0  0  0  0  0  0
    0.0796    1.1114   -0.7223 H   0  0  0  0  0  0  0  0  0  0  0  0
   -2.8755    2.3276   -2.0280 H   0  0  0  0  0  0  0  0  0  0  0  0
   -2.7839    2.5179   -0.2835 H   0  0  0  0  0  0  0  0  0  0  0  0
   -1.3368    2.7939   -1.2710 H   0  0  0  0  0  0  0  0  0  0  0  0
  1 14  1  6  0  0  0
  1  5  1  0  0  0  0
  1  2  1  0  0  0  0
  2  4  1  0  0  0  0
  2  3  2  0  0  0  0
  4 15  1  0  0  0  0
  5  6  1  0  0  0  0
  6  7  1  0  0  0  0
  6 18  1  0  0  0  0
  7  9  1  0  0  0  0
  8  7  2  0  0  0  0
  9 20  1  0  0  0  0
 10 21  1  0  0  0  0
 10  1  1  0  0  0  0
 11 12  2  0  0  0  0
 11 10  1  0  0  0  0
 13 11  1  0  0  0  0
 13 23  1  0  0  0  0
 16  5  1  0  0  0  0
 17  5  1  0  0  0  0
 19  6  1  0  0  0  0
 22 13  1  0  0  0  0
 24 13  1  0  0  0  0
M  END
