omegapdb_1xom_09.xyz
 OpenBabel11041815263D

 50 52  0  0  1  0  0  0  0  0999 V2000
    5.8983    2.1110   -1.2687 O   0  0  0  0  0  0  0  0  0  0  0  0
    5.0624    1.9439   -0.2149 C   0  0  0  0  0  0  0  0  0  0  0  0
    5.4131    2.1191    0.9299 O   0  0  0  0  0  0  0  0  0  0  0  0
    3.7016    1.4901   -0.6724 C   0  0  1  0  0  0  0  0  0  0  0  0
    3.8349    0.0979   -1.3353 C   0  0  0  0  0  0  0  0  0  0  0  0
    2.5261   -0.6618   -1.1847 C   0  0  0  0  0  0  0  0  0  0  0  0
    2.2923   -1.0414    0.3036 C   0  0  2  0  0  0  0  0  0  0  0  0
    2.7534    0.1288    1.2178 C   0  0  0  0  0  0  0  0  0  0  0  0
    2.7032    1.4664    0.4887 C   0  0  0  0  0  0  0  0  0  0  0  0
    3.1362   -2.2015    0.5953 C   0  0  0  0  0  0  0  0  0  0  0  0
    3.8376   -3.1183    0.8048 N   0  0  0  0  0  0  0  0  0  0  0  0
    0.8343   -1.4249    0.4870 C   0  0  0  0  0  0  0  0  0  0  0  0
    0.3915   -2.7103    0.1797 C   0  0  0  0  0  0  0  0  0  0  0  0
   -0.9601   -3.0460    0.2656 C   0  0  0  0  0  0  0  0  0  0  0  0
   -1.9021   -2.0941    0.6571 C   0  0  0  0  0  0  0  0  0  0  0  0
   -3.2341   -2.3256    0.7928 O   0  0  0  0  0  0  0  0  0  0  0  0
   -3.6648   -3.6561    0.5501 C   0  0  0  0  0  0  0  0  0  0  0  0
   -1.4645   -0.7896    0.9574 C   0  0  0  0  0  0  0  0  0  0  0  0
   -0.1148   -0.4736    0.8744 C   0  0  0  0  0  0  0  0  0  0  0  0
   -2.3478    0.1632    1.3902 O   0  0  0  0  0  0  0  0  0  0  0  0
   -3.1958    0.6577    0.3407 C   0  0  0  0  0  0  0  0  0  0  0  0
   -2.4612    1.4826   -0.7123 C   0  0  0  0  0  0  0  0  0  0  0  0
   -3.5943    2.3215   -1.2965 C   0  0  0  0  0  0  0  0  0  0  0  0
   -4.3515    2.7876   -0.0447 C   0  0  0  0  0  0  0  0  0  0  0  0
   -4.2255    1.6152    0.9526 C   0  0  0  0  0  0  0  0  0  0  0  0
    6.7521    2.3636   -0.8855 H   0  0  0  0  0  0  0  0  0  0  0  0
    3.3689    2.1981   -1.4334 H   0  0  0  0  0  0  0  0  0  0  0  0
    4.6330   -0.4762   -0.8574 H   0  0  0  0  0  0  0  0  0  0  0  0
    4.1144    0.2091   -2.3810 H   0  0  0  0  0  0  0  0  0  0  0  0
    2.5142   -1.5706   -1.7868 H   0  0  0  0  0  0  0  0  0  0  0  0
    1.6863   -0.0457   -1.5126 H   0  0  0  0  0  0  0  0  0  0  0  0
    3.7808   -0.0459    1.5380 H   0  0  0  0  0  0  0  0  0  0  0  0
    2.1427    0.1396    2.1198 H   0  0  0  0  0  0  0  0  0  0  0  0
    2.9371    2.2703    1.1849 H   0  0  0  0  0  0  0  0  0  0  0  0
    1.7015    1.6509    0.1006 H   0  0  0  0  0  0  0  0  0  0  0  0
    1.1038   -3.4722   -0.1094 H   0  0  0  0  0  0  0  0  0  0  0  0
   -1.2628   -4.0573    0.0413 H   0  0  0  0  0  0  0  0  0  0  0  0
   -3.1808   -4.3561    1.2326 H   0  0  0  0  0  0  0  0  0  0  0  0
   -4.7347   -3.6577    0.7272 H   0  0  0  0  0  0  0  0  0  0  0  0
   -3.4649   -3.9559   -0.4797 H   0  0  0  0  0  0  0  0  0  0  0  0
    0.1640    0.5363    1.1393 H   0  0  0  0  0  0  0  0  0  0  0  0
   -3.6902   -0.1916   -0.1349 H   0  0  0  0  0  0  0  0  0  0  0  0
   -1.7379    2.1290   -0.2079 H   0  0  0  0  0  0  0  0  0  0  0  0
   -1.9329    0.8733   -1.4439 H   0  0  0  0  0  0  0  0  0  0  0  0
   -4.2372    1.6900   -1.9133 H   0  0  0  0  0  0  0  0  0  0  0  0
   -3.2472    3.1450   -1.9178 H   0  0  0  0  0  0  0  0  0  0  0  0
   -3.8652    3.6752    0.3593 H   0  0  0  0  0  0  0  0  0  0  0  0
   -5.3857    3.0528   -0.2538 H   0  0  0  0  0  0  0  0  0  0  0  0
   -3.8536    1.9438    1.9215 H   0  0  0  0  0  0  0  0  0  0  0  0
   -5.1739    1.1100    1.1205 H   0  0  0  0  0  0  0  0  0  0  0  0
  1 26  1  0  0  0  0
  1  2  1  0  0  0  0
  2  3  2  0  0  0  0
  4 27  1  6  0  0  0
  4  2  1  0  0  0  0
  4  9  1  0  0  0  0
  5  6  1  0  0  0  0
  5 28  1  0  0  0  0
  5  4  1  0  0  0  0
  6  7  1  0  0  0  0
  7 12  1  1  0  0  0
  7 10  1  0  0  0  0
  7  8  1  0  0  0  0
  8 32  1  0  0  0  0
  8 33  1  0  0  0  0
  9 34  1  0  0  0  0
  9  8  1  0  0  0  0
 10 11  3  0  0  0  0
 12 19  2  0  0  0  0
 13 14  2  0  0  0  0
 13 12  1  0  0  0  0
 14 15  1  0  0  0  0
 15 16  1  0  0  0  0
 15 18  2  0  0  0  0
 17 39  1  0  0  0  0
 17 16  1  0  0  0  0
 17 38  1  0  0  0  0
 18 20  1  0  0  0  0
 19 18  1  0  0  0  0
 19 41  1  0  0  0  0
 21 25  1  0  0  0  0
 21 20  1  0  0  0  0
 22 43  1  0  0  0  0
 22 21  1  0  0  0  0
 23 22  1  0  0  0  0
 23 24  1  0  0  0  0
 24 47  1  0  0  0  0
 24 25  1  0  0  0  0
 25 50  1  0  0  0  0
 25 49  1  0  0  0  0
 29  5  1  0  0  0  0
 30  6  1  0  0  0  0
 31  6  1  0  0  0  0
 35  9  1  0  0  0  0
 36 13  1  0  0  0  0
 37 14  1  0  0  0  0
 40 17  1  0  0  0  0
 42 21  1  0  0  0  0
 44 22  1  0  0  0  0
 45 23  1  0  0  0  0
 46 23  1  0  0  0  0
 48 24  1  0  0  0  0
M  END
