omegapdb_1v2k_01.xyz
 OpenBabel11041815263D

 61 65  0  0  0  0  0  0  0  0999 V2000
    8.1480    2.5659    0.4858 N   0  0  0  0  0  0  0  0  0  0  0  0
    7.5095    1.9286    1.4799 C   0  0  0  0  0  0  0  0  0  0  0  0
    6.4822    1.0157    1.2980 C   0  0  0  0  0  0  0  0  0  0  0  0
    6.0427    0.7060    0.0007 C   0  0  0  0  0  0  0  0  0  0  0  0
    6.7017    1.3720   -1.0416 C   0  0  0  0  0  0  0  0  0  0  0  0
    7.7268    2.2668   -0.7474 C   0  0  0  0  0  0  0  0  0  0  0  0
    5.0438   -0.2450   -0.2135 N   0  0  0  0  0  0  0  0  0  0  0  0
    4.7070   -0.5374   -1.6020 C   0  0  0  0  0  0  0  0  0  0  0  0
    3.8723   -1.8096   -1.6953 C   0  0  0  0  0  0  0  0  0  0  0  0
    2.6449   -1.8218   -0.7847 C   0  0  0  0  0  0  0  0  0  0  0  0
    3.0750   -1.4242    0.6342 C   0  0  0  0  0  0  0  0  0  0  0  0
    3.8480   -0.1169    0.6174 C   0  0  0  0  0  0  0  0  0  0  0  0
    1.5594   -0.8894   -1.3018 C   0  0  0  0  0  0  0  0  0  0  0  0
    1.7932   -0.0326   -2.1513 O   0  0  0  0  0  0  0  0  0  0  0  0
    0.3112   -1.0196   -0.7488 N   0  0  0  0  0  0  0  0  0  0  0  0
   -0.7507   -0.1255   -1.1766 C   0  0  0  0  0  0  0  0  0  0  0  0
   -1.4170    0.4954    0.0370 C   0  0  0  0  0  0  0  0  0  0  0  0
   -1.9131   -0.5881    0.8957 N   0  0  0  0  0  0  0  0  0  0  0  0
   -0.8107   -1.4363    1.3721 C   0  0  0  0  0  0  0  0  0  0  0  0
   -0.1370   -2.0569    0.1590 C   0  0  0  0  0  0  0  0  0  0  0  0
   -2.8814   -0.0397    2.1568 S   0  0  0  0  0  0  0  0  0  0  0  0
   -2.2913    1.1222    2.8003 O   0  0  0  0  0  0  0  0  0  0  0  0
   -3.2209   -1.2130    2.9368 O   0  0  0  0  0  0  0  0  0  0  0  0
   -4.2937    0.5036    1.2386 C   0  0  0  0  0  0  0  0  0  0  0  0
   -5.0753   -0.4443    0.6135 C   0  0  0  0  0  0  0  0  0  0  0  0
   -6.2105   -0.0346   -0.1147 C   0  0  0  0  0  0  0  0  0  0  0  0
   -6.5274    1.3601   -0.1886 C   0  0  0  0  0  0  0  0  0  0  0  0
   -5.6979    2.2938    0.4759 C   0  0  0  0  0  0  0  0  0  0  0  0
   -4.5911    1.8791    1.1829 C   0  0  0  0  0  0  0  0  0  0  0  0
   -7.6635    1.7724   -0.9196 C   0  0  0  0  0  0  0  0  0  0  0  0
   -8.4483    0.8335   -1.5486 C   0  0  0  0  0  0  0  0  0  0  0  0
   -8.1486   -0.5433   -1.4825 C   0  0  0  0  0  0  0  0  0  0  0  0
   -7.0472   -0.9651   -0.7759 C   0  0  0  0  0  0  0  0  0  0  0  0
   -9.8415    1.3355   -2.4461 Cl  0  0  0  0  0  0  0  0  0  0  0  0
    7.8472    2.1555    2.4840 H   0  0  0  0  0  0  0  0  0  0  0  0
    6.0571    0.5286    2.1632 H   0  0  0  0  0  0  0  0  0  0  0  0
    6.4235    1.2234   -2.0730 H   0  0  0  0  0  0  0  0  0  0  0  0
    8.2290    2.7796   -1.5593 H   0  0  0  0  0  0  0  0  0  0  0  0
    5.6361   -0.7026   -2.1455 H   0  0  0  0  0  0  0  0  0  0  0  0
    4.1725    0.2960   -2.0686 H   0  0  0  0  0  0  0  0  0  0  0  0
    4.5038   -2.6533   -1.4100 H   0  0  0  0  0  0  0  0  0  0  0  0
    3.5691   -1.9507   -2.7324 H   0  0  0  0  0  0  0  0  0  0  0  0
    2.2501   -2.8392   -0.7675 H   0  0  0  0  0  0  0  0  0  0  0  0
    3.7213   -2.2046    1.0410 H   0  0  0  0  0  0  0  0  0  0  0  0
    2.2144   -1.3198    1.2959 H   0  0  0  0  0  0  0  0  0  0  0  0
    4.1405    0.1450    1.6296 H   0  0  0  0  0  0  0  0  0  0  0  0
    3.2096    0.6950    0.2376 H   0  0  0  0  0  0  0  0  0  0  0  0
   -1.4933   -0.6862   -1.7518 H   0  0  0  0  0  0  0  0  0  0  0  0
   -0.3066    0.6354   -1.8117 H   0  0  0  0  0  0  0  0  0  0  0  0
   -0.7058    1.1291    0.5776 H   0  0  0  0  0  0  0  0  0  0  0  0
   -2.2623    1.1070   -0.2790 H   0  0  0  0  0  0  0  0  0  0  0  0
   -1.2263   -2.2102    2.0132 H   0  0  0  0  0  0  0  0  0  0  0  0
   -0.0805   -0.8484    1.9415 H   0  0  0  0  0  0  0  0  0  0  0  0
   -0.8600   -2.7001   -0.3529 H   0  0  0  0  0  0  0  0  0  0  0  0
    0.6969   -2.6700    0.4825 H   0  0  0  0  0  0  0  0  0  0  0  0
   -4.8220   -1.4942    0.6874 H   0  0  0  0  0  0  0  0  0  0  0  0
   -5.9450    3.3466    0.4224 H   0  0  0  0  0  0  0  0  0  0  0  0
   -3.9520    2.5783    1.7032 H   0  0  0  0  0  0  0  0  0  0  0  0
   -7.9148    2.8227   -0.9829 H   0  0  0  0  0  0  0  0  0  0  0  0
   -8.7904   -1.2501   -1.9884 H   0  0  0  0  0  0  0  0  0  0  0  0
   -6.8107   -2.0199   -0.7182 H   0  0  0  0  0  0  0  0  0  0  0  0
  1  2  2  0  0  0  0
  2 35  1  0  0  0  0
  3  2  1  0  0  0  0
  3 36  1  0  0  0  0
  4  3  2  0  0  0  0
  5  6  2  0  0  0  0
  5  4  1  0  0  0  0
  6  1  1  0  0  0  0
  7  4  1  0  0  0  0
  7 12  1  0  0  0  0
  8  7  1  0  0  0  0
  9  8  1  0  0  0  0
  9 41  1  0  0  0  0
  9 10  1  0  0  0  0
 10 43  1  0  0  0  0
 10 11  1  0  0  0  0
 11 44  1  0  0  0  0
 11 45  1  0  0  0  0
 12 11  1  0  0  0  0
 12 46  1  0  0  0  0
 13 10  1  0  0  0  0
 13 15  1  0  0  0  0
 14 13  2  0  0  0  0
 15 20  1  0  0  0  0
 16 15  1  0  0  0  0
 16 17  1  0  0  0  0
 17 50  1  0  0  0  0
 17 18  1  0  0  0  0
 18 19  1  0  0  0  0
 18 21  1  0  0  0  0
 19 53  1  0  0  0  0
 19 52  1  0  0  0  0
 20 55  1  0  0  0  0
 20 19  1  0  0  0  0
 21 22  2  0  0  0  0
 21 23  2  0  0  0  0
 24 21  1  0  0  0  0
 25 56  1  0  0  0  0
 25 24  2  0  0  0  0
 26 25  1  0  0  0  0
 27 26  1  0  0  0  0
 27 28  1  0  0  0  0
 28 29  2  0  0  0  0
 29 24  1  0  0  0  0
 29 58  1  0  0  0  0
 30 27  2  0  0  0  0
 31 32  2  0  0  0  0
 31 30  1  0  0  0  0
 32 33  1  0  0  0  0
 33 61  1  0  0  0  0
 33 26  2  0  0  0  0
 34 31  1  0  0  0  0
 37  5  1  0  0  0  0
 38  6  1  0  0  0  0
 39  8  1  0  0  0  0
 40  8  1  0  0  0  0
 42  9  1  0  0  0  0
 47 12  1  0  0  0  0
 48 16  1  0  0  0  0
 49 16  1  0  0  0  0
 51 17  1  0  0  0  0
 54 20  1  0  0  0  0
 57 28  1  0  0  0  0
 59 30  1  0  0  0  0
 60 32  1  0  0  0  0
M  END
