omegacsd_SEYMIS_10.xyz
 OpenBabel11041815263D

 45 47  0  0  0  0  0  0  0  0999 V2000
   -5.3788   -2.1489    0.5788 O   0  0  0  0  0  0  0  0  0  0  0  0
   -5.3482   -1.0744   -0.2855 N   0  0  0  0  0  0  0  0  0  0  0  0
   -4.0990   -0.6277   -0.2627 C   0  0  0  0  0  0  0  0  0  0  0  0
   -3.2937   -1.4020    0.6220 C   0  0  0  0  0  0  0  0  0  0  0  0
   -1.8460   -1.3367    0.9371 C   0  0  0  0  0  0  0  0  0  0  0  0
   -1.3783   -1.7836    1.9779 O   0  0  0  0  0  0  0  0  0  0  0  0
   -1.0987   -0.7636   -0.0498 N   0  0  0  0  0  0  0  0  0  0  0  0
    0.2592   -0.4563    0.0320 C   0  0  0  0  0  0  0  0  0  0  0  0
    0.9161    0.3275   -0.9175 C   0  0  0  0  0  0  0  0  0  0  0  0
    2.2257    0.4376   -0.5511 N   0  0  0  0  0  0  0  0  0  0  0  0
    3.1948    1.1904   -1.3310 C   0  0  0  0  0  0  0  0  0  0  0  0
    2.4181   -0.2586    0.6189 C   0  0  0  0  0  0  0  0  0  0  0  0
    1.2003   -0.8273    1.0024 C   0  0  0  0  0  0  0  0  0  0  0  0
    3.6677   -0.4020    1.3577 C   0  0  0  0  0  0  0  0  0  0  0  0
    3.7762   -1.0322    2.3887 O   0  0  0  0  0  0  0  0  0  0  0  0
    4.7067    0.2467    0.7700 O   0  0  0  0  0  0  0  0  0  0  0  0
    5.9529    0.1185    1.4819 C   0  0  0  0  0  0  0  0  0  0  0  0
    6.9873    0.8898    0.7009 C   0  0  0  0  0  0  0  0  0  0  0  0
   -4.1592   -2.3385    1.1224 C   0  0  0  0  0  0  0  0  0  0  0  0
   -4.0118   -3.4579    2.0787 C   0  0  0  0  0  0  0  0  0  0  0  0
   -3.7424    0.5340   -1.0863 C   0  0  0  0  0  0  0  0  0  0  0  0
   -4.1363    0.5873   -2.4281 C   0  0  0  0  0  0  0  0  0  0  0  0
   -3.7950    1.6849   -3.2138 C   0  0  0  0  0  0  0  0  0  0  0  0
   -3.0560    2.7346   -2.6701 C   0  0  0  0  0  0  0  0  0  0  0  0
   -2.6674    2.6894   -1.3314 C   0  0  0  0  0  0  0  0  0  0  0  0
   -3.0107    1.5970   -0.5399 C   0  0  0  0  0  0  0  0  0  0  0  0
   -1.5946   -0.4106   -0.8533 H   0  0  0  0  0  0  0  0  0  0  0  0
    0.5460    0.8037   -1.8102 H   0  0  0  0  0  0  0  0  0  0  0  0
    3.9982    0.5434   -1.6689 H   0  0  0  0  0  0  0  0  0  0  0  0
    3.6192    1.9948   -0.7387 H   0  0  0  0  0  0  0  0  0  0  0  0
    2.6714    1.6030   -2.1886 H   0  0  0  0  0  0  0  0  0  0  0  0
    1.0410   -1.4265    1.8783 H   0  0  0  0  0  0  0  0  0  0  0  0
    5.8248    0.5091    2.4898 H   0  0  0  0  0  0  0  0  0  0  0  0
    6.2045   -0.9373    1.5644 H   0  0  0  0  0  0  0  0  0  0  0  0
    6.7118    1.9395    0.6266 H   0  0  0  0  0  0  0  0  0  0  0  0
    7.9518    0.8230    1.2011 H   0  0  0  0  0  0  0  0  0  0  0  0
    7.0935    0.4857   -0.3035 H   0  0  0  0  0  0  0  0  0  0  0  0
   -2.9619   -3.5654    2.3318 H   0  0  0  0  0  0  0  0  0  0  0  0
   -4.5693   -3.2523    2.9917 H   0  0  0  0  0  0  0  0  0  0  0  0
   -4.3938   -4.3812    1.6470 H   0  0  0  0  0  0  0  0  0  0  0  0
   -4.7057   -0.2346   -2.8400 H   0  0  0  0  0  0  0  0  0  0  0  0
   -4.1024    1.7186   -4.2499 H   0  0  0  0  0  0  0  0  0  0  0  0
   -2.7896    3.5845   -3.2833 H   0  0  0  0  0  0  0  0  0  0  0  0
   -2.1065    3.5070   -0.9000 H   0  0  0  0  0  0  0  0  0  0  0  0
   -2.7218    1.5675    0.5026 H   0  0  0  0  0  0  0  0  0  0  0  0
  1 19  1  0  0  0  0
  2  3  2  0  0  0  0
  2  1  1  0  0  0  0
  3  4  1  0  0  0  0
  4  5  1  0  0  0  0
  4 19  2  0  0  0  0
  5  6  2  0  0  0  0
  7  8  1  0  0  0  0
  7  5  1  0  0  0  0
  8 13  1  0  0  0  0
  9 10  1  0  0  0  0
  9  8  2  0  0  0  0
 10 12  1  0  0  0  0
 11 30  1  0  0  0  0
 11 10  1  0  0  0  0
 12 13  2  0  0  0  0
 12 14  1  0  0  0  0
 13 32  1  0  0  0  0
 14 15  2  0  0  0  0
 16 14  1  0  0  0  0
 16 17  1  0  0  0  0
 17 34  1  0  0  0  0
 17 33  1  0  0  0  0
 18 36  1  0  0  0  0
 18 17  1  0  0  0  0
 19 20  1  0  0  0  0
 20 38  1  0  0  0  0
 20 39  1  0  0  0  0
 21 26  1  0  0  0  0
 21  3  1  0  0  0  0
 22 21  2  0  0  0  0
 23 24  2  0  0  0  0
 23 22  1  0  0  0  0
 24 25  1  0  0  0  0
 25 44  1  0  0  0  0
 25 26  2  0  0  0  0
 26 45  1  0  0  0  0
 27  7  1  0  0  0  0
 28  9  1  0  0  0  0
 29 11  1  0  0  0  0
 31 11  1  0  0  0  0
 35 18  1  0  0  0  0
 37 18  1  0  0  0  0
 40 20  1  0  0  0  0
 41 22  1  0  0  0  0
 42 23  1  0  0  0  0
 43 24  1  0  0  0  0
M  END
