omegacsd_CDBMPI10_02.xyz
 OpenBabel11041815263D

 46 48  0  0  1  0  0  0  0  0999 V2000
    3.2494    1.8229    0.7840 O   0  0  0  0  0  0  0  0  0  0  0  0
    2.4668    1.0111    0.2992 C   0  0  0  0  0  0  0  0  0  0  0  0
    1.3014    1.3718   -0.3203 N   0  0  0  0  0  0  0  0  0  0  0  0
    0.4959    0.4854   -1.1580 C   0  0  1  0  0  0  0  0  0  0  0  0
   -0.9330    1.0416   -1.1570 C   0  0  0  0  0  0  0  0  0  0  0  0
   -1.2602    1.5525    0.1641 N   0  0  0  0  0  0  0  0  0  0  0  0
   -0.4979    2.7608    0.5161 C   0  0  1  0  0  0  0  0  0  0  0  0
    0.8377    2.7413   -0.2410 C   0  0  0  0  0  0  0  0  0  0  0  0
   -1.2996    4.0145    0.2166 C   0  0  0  0  0  0  0  0  0  0  0  0
   -1.6098    0.7001    1.1876 C   0  0  0  0  0  0  0  0  0  0  0  0
   -1.3971    0.9482    2.3712 O   0  0  0  0  0  0  0  0  0  0  0  0
   -2.3243   -0.5537    0.7955 C   0  0  0  0  0  0  0  0  0  0  0  0
   -3.4275   -0.5398   -0.0629 C   0  0  0  0  0  0  0  0  0  0  0  0
   -4.1063   -1.7221   -0.3469 C   0  0  0  0  0  0  0  0  0  0  0  0
   -3.6780   -2.9258    0.2111 C   0  0  0  0  0  0  0  0  0  0  0  0
   -2.5853   -2.9397    1.0773 C   0  0  0  0  0  0  0  0  0  0  0  0
   -1.9199   -1.7556    1.3813 C   0  0  0  0  0  0  0  0  0  0  0  0
    1.0512    0.3721   -2.5694 C   0  0  0  0  0  0  0  0  0  0  0  0
    2.7075   -0.4602    0.4042 C   0  0  0  0  0  0  0  0  0  0  0  0
    1.8597   -1.2424    1.1933 C   0  0  0  0  0  0  0  0  0  0  0  0
    2.1108   -2.6032    1.3475 C   0  0  0  0  0  0  0  0  0  0  0  0
    3.2023   -3.1878    0.7059 C   0  0  0  0  0  0  0  0  0  0  0  0
    4.0539   -2.4051   -0.0729 C   0  0  0  0  0  0  0  0  0  0  0  0
    3.8146   -1.0400   -0.2152 C   0  0  0  0  0  0  0  0  0  0  0  0
    0.4695   -0.5001   -0.6945 H   0  0  0  0  0  0  0  0  0  0  0  0
   -1.6254    0.2624   -1.4570 H   0  0  0  0  0  0  0  0  0  0  0  0
   -1.0275    1.8593   -1.8747 H   0  0  0  0  0  0  0  0  0  0  0  0
   -0.2961    2.6844    1.5826 H   0  0  0  0  0  0  0  0  0  0  0  0
    0.7255    3.1662   -1.2430 H   0  0  0  0  0  0  0  0  0  0  0  0
    1.5908    3.3198    0.2872 H   0  0  0  0  0  0  0  0  0  0  0  0
   -0.7117    4.9037    0.4455 H   0  0  0  0  0  0  0  0  0  0  0  0
   -2.2082    4.0374    0.8143 H   0  0  0  0  0  0  0  0  0  0  0  0
   -1.5767    4.0532   -0.8377 H   0  0  0  0  0  0  0  0  0  0  0  0
   -3.7626    0.3991   -0.4850 H   0  0  0  0  0  0  0  0  0  0  0  0
   -4.9688   -1.7037   -0.9989 H   0  0  0  0  0  0  0  0  0  0  0  0
   -4.2005   -3.8444   -0.0171 H   0  0  0  0  0  0  0  0  0  0  0  0
   -2.2602   -3.8698    1.5229 H   0  0  0  0  0  0  0  0  0  0  0  0
   -1.0988   -1.7464    2.0845 H   0  0  0  0  0  0  0  0  0  0  0  0
    2.0335   -0.0971   -2.5546 H   0  0  0  0  0  0  0  0  0  0  0  0
    0.3907   -0.2322   -3.1927 H   0  0  0  0  0  0  0  0  0  0  0  0
    1.1452    1.3598   -3.0220 H   0  0  0  0  0  0  0  0  0  0  0  0
    1.0231   -0.7730    1.6975 H   0  0  0  0  0  0  0  0  0  0  0  0
    1.4604   -3.2046    1.9684 H   0  0  0  0  0  0  0  0  0  0  0  0
    3.3941   -4.2458    0.8200 H   0  0  0  0  0  0  0  0  0  0  0  0
    4.9071   -2.8560   -0.5609 H   0  0  0  0  0  0  0  0  0  0  0  0
    4.4840   -0.4191   -0.7960 H   0  0  0  0  0  0  0  0  0  0  0  0
  2 19  1  0  0  0  0
  2  1  2  0  0  0  0
  3  8  1  0  0  0  0
  3  2  1  0  0  0  0
  4  5  1  0  0  0  0
  4 25  1  1  0  0  0
  4  3  1  0  0  0  0
  5  6  1  0  0  0  0
  6  7  1  0  0  0  0
  6 10  1  0  0  0  0
  7 28  1  1  0  0  0
  8 30  1  0  0  0  0
  8  7  1  0  0  0  0
  9 31  1  0  0  0  0
  9  7  1  0  0  0  0
  9 32  1  0  0  0  0
 10 11  2  0  0  0  0
 12 10  1  0  0  0  0
 12 17  2  0  0  0  0
 13 12  1  0  0  0  0
 14 13  2  0  0  0  0
 14 15  1  0  0  0  0
 15 16  2  0  0  0  0
 16 17  1  0  0  0  0
 16 37  1  0  0  0  0
 17 38  1  0  0  0  0
 18 39  1  0  0  0  0
 18  4  1  0  0  0  0
 19 20  2  0  0  0  0
 20 21  1  0  0  0  0
 20 42  1  0  0  0  0
 21 43  1  0  0  0  0
 22 44  1  0  0  0  0
 22 21  2  0  0  0  0
 23 22  1  0  0  0  0
 24 23  2  0  0  0  0
 24 19  1  0  0  0  0
 26  5  1  0  0  0  0
 27  5  1  0  0  0  0
 29  8  1  0  0  0  0
 33  9  1  0  0  0  0
 34 13  1  0  0  0  0
 35 14  1  0  0  0  0
 36 15  1  0  0  0  0
 40 18  1  0  0  0  0
 41 18  1  0  0  0  0
 45 23  1  0  0  0  0
 46 24  1  0  0  0  0
M  END
