omegapdb_2byh_12.xyz
 OpenBabel11041815263D

 40 42  0  0  0  0  0  0  0  0999 V2000
    5.0770    2.6927    3.5559 O   0  0  0  0  0  0  0  0  0  0  0  0
    5.3209    1.9035    2.6552 C   0  0  0  0  0  0  0  0  0  0  0  0
    6.7401    1.6548    2.2032 C   0  0  0  0  0  0  0  0  0  0  0  0
    4.2252    1.1619    1.9695 C   0  0  0  0  0  0  0  0  0  0  0  0
    2.9062    1.3828    2.3744 C   0  0  0  0  0  0  0  0  0  0  0  0
    1.8415    0.7242    1.7751 C   0  0  0  0  0  0  0  0  0  0  0  0
    2.0927   -0.1864    0.7389 C   0  0  0  0  0  0  0  0  0  0  0  0
    3.4123   -0.4139    0.3289 C   0  0  0  0  0  0  0  0  0  0  0  0
    4.4669    0.2521    0.9345 C   0  0  0  0  0  0  0  0  0  0  0  0
    1.0879   -0.9040    0.0822 N   0  0  0  0  0  0  0  0  0  0  0  0
   -0.2771   -0.8191    0.2474 C   0  0  0  0  0  0  0  0  0  0  0  0
   -0.8283   -0.0346    1.0071 O   0  0  0  0  0  0  0  0  0  0  0  0
   -1.0010   -1.8046   -0.5823 C   0  0  0  0  0  0  0  0  0  0  0  0
   -0.5664   -3.1043   -0.9017 C   0  0  0  0  0  0  0  0  0  0  0  0
   -1.4953   -3.7898   -1.5874 N   0  0  0  0  0  0  0  0  0  0  0  0
   -2.5004   -2.9234   -1.7097 N   0  0  0  0  0  0  0  0  0  0  0  0
   -2.2883   -1.7108   -1.1284 C   0  0  0  0  0  0  0  0  0  0  0  0
   -3.2589   -0.6242   -1.2110 C   0  0  0  0  0  0  0  0  0  0  0  0
   -2.8418    0.7076   -1.1102 C   0  0  0  0  0  0  0  0  0  0  0  0
   -3.7378    1.7615   -1.1791 C   0  0  0  0  0  0  0  0  0  0  0  0
   -3.1746    3.3858   -1.0470 Cl  0  0  0  0  0  0  0  0  0  0  0  0
   -5.1023    1.5177   -1.3604 C   0  0  0  0  0  0  0  0  0  0  0  0
   -5.9478    2.5792   -1.4204 O   0  0  0  0  0  0  0  0  0  0  0  0
   -5.5281    0.1985   -1.4804 C   0  0  0  0  0  0  0  0  0  0  0  0
   -4.6263   -0.8577   -1.4127 C   0  0  0  0  0  0  0  0  0  0  0  0
   -5.0529   -2.1596   -1.5454 O   0  0  0  0  0  0  0  0  0  0  0  0
    7.0027    0.6045    2.3250 H   0  0  0  0  0  0  0  0  0  0  0  0
    6.8559    1.9039    1.1488 H   0  0  0  0  0  0  0  0  0  0  0  0
    7.4072    2.2693    2.7987 H   0  0  0  0  0  0  0  0  0  0  0  0
    2.7286    2.0877    3.1745 H   0  0  0  0  0  0  0  0  0  0  0  0
    0.8275    0.9047    2.0886 H   0  0  0  0  0  0  0  0  0  0  0  0
    3.6082   -1.1180   -0.4710 H   0  0  0  0  0  0  0  0  0  0  0  0
    5.4743    0.0565    0.5958 H   0  0  0  0  0  0  0  0  0  0  0  0
    1.3958   -1.5131   -0.6591 H   0  0  0  0  0  0  0  0  0  0  0  0
    0.3513   -3.5943   -0.6209 H   0  0  0  0  0  0  0  0  0  0  0  0
   -3.3560   -3.2037   -2.1627 H   0  0  0  0  0  0  0  0  0  0  0  0
   -1.7984    0.9320   -0.9590 H   0  0  0  0  0  0  0  0  0  0  0  0
   -6.8454    2.2481   -1.5336 H   0  0  0  0  0  0  0  0  0  0  0  0
   -6.5818   -0.0088   -1.6346 H   0  0  0  0  0  0  0  0  0  0  0  0
   -6.0131   -2.1592   -1.6204 H   0  0  0  0  0  0  0  0  0  0  0  0
  2  1  2  0  0  0  0
  3 27  1  0  0  0  0
  3  2  1  0  0  0  0
  3 29  1  0  0  0  0
  4  5  1  0  0  0  0
  4  2  1  0  0  0  0
  5 30  1  0  0  0  0
  6 31  1  0  0  0  0
  6  5  2  0  0  0  0
  7  6  1  0  0  0  0
  8  7  2  0  0  0  0
  8  9  1  0  0  0  0
  9  4  2  0  0  0  0
 10 11  1  0  0  0  0
 10  7  1  0  0  0  0
 11 12  2  0  0  0  0
 13 11  1  0  0  0  0
 14 35  1  0  0  0  0
 14 13  1  0  0  0  0
 15 14  2  0  0  0  0
 16 15  1  0  0  0  0
 16 17  1  0  0  0  0
 17 13  2  0  0  0  0
 18 17  1  0  0  0  0
 18 19  2  0  0  0  0
 19 37  1  0  0  0  0
 20 19  1  0  0  0  0
 20 21  1  0  0  0  0
 22 20  2  0  0  0  0
 23 22  1  0  0  0  0
 24 25  2  0  0  0  0
 24 22  1  0  0  0  0
 25 18  1  0  0  0  0
 26 25  1  0  0  0  0
 28  3  1  0  0  0  0
 32  8  1  0  0  0  0
 33  9  1  0  0  0  0
 34 10  1  0  0  0  0
 36 16  1  0  0  0  0
 38 23  1  0  0  0  0
 39 24  1  0  0  0  0
 40 26  1  0  0  0  0
M  END
