omegapdb_2byh_10.xyz
 OpenBabel11041815263D

 40 42  0  0  0  0  0  0  0  0999 V2000
    5.1755    2.8336    3.0939 O   0  0  0  0  0  0  0  0  0  0  0  0
    5.3755    2.0510    2.1771 C   0  0  0  0  0  0  0  0  0  0  0  0
    6.7621    1.8478    1.6156 C   0  0  0  0  0  0  0  0  0  0  0  0
    4.2542    1.2696    1.5812 C   0  0  0  0  0  0  0  0  0  0  0  0
    4.4435    0.3648    0.5311 C   0  0  0  0  0  0  0  0  0  0  0  0
    3.3669   -0.3388    0.0126 C   0  0  0  0  0  0  0  0  0  0  0  0
    2.0778   -0.1537    0.5268 C   0  0  0  0  0  0  0  0  0  0  0  0
    1.8787    0.7521    1.5779 C   0  0  0  0  0  0  0  0  0  0  0  0
    2.9652    1.4480    2.0898 C   0  0  0  0  0  0  0  0  0  0  0  0
    1.0480   -0.9082   -0.0477 N   0  0  0  0  0  0  0  0  0  0  0  0
   -0.2955   -0.8905    0.2457 C   0  0  0  0  0  0  0  0  0  0  0  0
   -0.8132   -0.1450    1.0663 O   0  0  0  0  0  0  0  0  0  0  0  0
   -1.0578   -1.8866   -0.5353 C   0  0  0  0  0  0  0  0  0  0  0  0
   -0.6304   -3.1446   -1.0042 C   0  0  0  0  0  0  0  0  0  0  0  0
   -1.5976   -3.7831   -1.6810 N   0  0  0  0  0  0  0  0  0  0  0  0
   -2.6234   -2.9268   -1.6479 N   0  0  0  0  0  0  0  0  0  0  0  0
   -2.3812   -1.7680   -0.9673 C   0  0  0  0  0  0  0  0  0  0  0  0
   -3.3990   -0.7256   -0.8555 C   0  0  0  0  0  0  0  0  0  0  0  0
   -3.7629   -0.2063    0.3905 C   0  0  0  0  0  0  0  0  0  0  0  0
   -4.7632    0.7458    0.4787 C   0  0  0  0  0  0  0  0  0  0  0  0
   -5.2294    1.3993    2.0176 Cl  0  0  0  0  0  0  0  0  0  0  0  0
   -5.4293    1.2064   -0.6636 C   0  0  0  0  0  0  0  0  0  0  0  0
   -6.4143    2.1326   -0.6116 O   0  0  0  0  0  0  0  0  0  0  0  0
   -5.0572    0.7042   -1.9050 C   0  0  0  0  0  0  0  0  0  0  0  0
   -4.0510   -0.2472   -2.0045 C   0  0  0  0  0  0  0  0  0  0  0  0
   -3.7407   -0.6856   -3.2645 O   0  0  0  0  0  0  0  0  0  0  0  0
    6.7865    2.0968    0.5552 H   0  0  0  0  0  0  0  0  0  0  0  0
    7.0682    0.8071    1.7175 H   0  0  0  0  0  0  0  0  0  0  0  0
    7.4532    2.4860    2.1562 H   0  0  0  0  0  0  0  0  0  0  0  0
    5.4266    0.2019    0.1133 H   0  0  0  0  0  0  0  0  0  0  0  0
    3.5225   -1.0395   -0.7991 H   0  0  0  0  0  0  0  0  0  0  0  0
    0.8874    0.9009    1.9702 H   0  0  0  0  0  0  0  0  0  0  0  0
    2.8287    2.1501    2.9003 H   0  0  0  0  0  0  0  0  0  0  0  0
    1.3163   -1.4961   -0.8208 H   0  0  0  0  0  0  0  0  0  0  0  0
    0.3164   -3.6362   -0.8519 H   0  0  0  0  0  0  0  0  0  0  0  0
   -3.5017   -3.1938   -2.0676 H   0  0  0  0  0  0  0  0  0  0  0  0
   -3.2496   -0.5396    1.2789 H   0  0  0  0  0  0  0  0  0  0  0  0
   -6.5271    2.3775    0.3183 H   0  0  0  0  0  0  0  0  0  0  0  0
   -5.5445    1.0690   -2.7973 H   0  0  0  0  0  0  0  0  0  0  0  0
   -2.8843   -1.1296   -3.2239 H   0  0  0  0  0  0  0  0  0  0  0  0
  2  1  2  0  0  0  0
  3 28  1  0  0  0  0
  3 29  1  0  0  0  0
  3  2  1  0  0  0  0
  4  9  1  0  0  0  0
  4  2  1  0  0  0  0
  5  4  2  0  0  0  0
  6  7  2  0  0  0  0
  6  5  1  0  0  0  0
  7  8  1  0  0  0  0
  8 32  1  0  0  0  0
  8  9  2  0  0  0  0
  9 33  1  0  0  0  0
 10 11  1  0  0  0  0
 10  7  1  0  0  0  0
 11 12  2  0  0  0  0
 13 11  1  0  0  0  0
 14 35  1  0  0  0  0
 14 13  1  0  0  0  0
 15 16  1  0  0  0  0
 15 14  2  0  0  0  0
 16 17  1  0  0  0  0
 17 18  1  0  0  0  0
 17 13  2  0  0  0  0
 18 19  2  0  0  0  0
 19 20  1  0  0  0  0
 19 37  1  0  0  0  0
 20 21  1  0  0  0  0
 22 23  1  0  0  0  0
 22 20  2  0  0  0  0
 23 38  1  0  0  0  0
 24 22  1  0  0  0  0
 25 24  2  0  0  0  0
 25 18  1  0  0  0  0
 26 40  1  0  0  0  0
 26 25  1  0  0  0  0
 27  3  1  0  0  0  0
 30  5  1  0  0  0  0
 31  6  1  0  0  0  0
 34 10  1  0  0  0  0
 36 16  1  0  0  0  0
 39 24  1  0  0  0  0
M  END
