omegapdb_1z1r_19.xyz
 OpenBabel11041815263D

 66 68  0  0  1  0  0  0  0  0999 V2000
    0.3811   -0.0308    0.0178 C   0  0  2  0  0  0  0  0  0  0  0  0
    0.7167   -1.1436   -0.9847 C   0  0  0  0  0  0  0  0  0  0  0  0
   -0.4026   -2.1450   -0.9611 C   0  0  0  0  0  0  0  0  0  0  0  0
   -1.3693   -2.1855   -1.9720 C   0  0  0  0  0  0  0  0  0  0  0  0
   -2.5185   -2.9649   -1.8425 C   0  0  0  0  0  0  0  0  0  0  0  0
   -2.7210   -3.7031   -0.6760 C   0  0  0  0  0  0  0  0  0  0  0  0
   -1.7292   -3.7355    0.3049 C   0  0  0  0  0  0  0  0  0  0  0  0
   -0.5842   -2.9611    0.1607 C   0  0  0  0  0  0  0  0  0  0  0  0
   -3.8655   -4.4220   -0.4595 O   0  0  0  0  0  0  0  0  0  0  0  0
   -5.0639   -3.6297   -0.4299 C   0  0  0  0  0  0  0  0  0  0  0  0
   -5.1117   -2.6146    0.7025 C   0  0  0  0  0  0  0  0  0  0  0  0
   -4.3517   -1.3174    0.4490 C   0  0  0  0  0  0  0  0  0  0  0  0
   -4.7062   -0.2570    1.4793 C   0  0  0  0  0  0  0  0  0  0  0  0
   -5.4463   -0.4854    2.4247 O   0  0  0  0  0  0  0  0  0  0  0  0
   -4.1724    0.9870    1.2712 N   0  0  0  0  0  0  0  0  0  0  0  0
   -3.1735    1.3106    0.2924 C   0  0  2  0  0  0  0  0  0  0  0  0
   -1.7592    0.9245    0.7332 C   0  0  0  0  0  0  0  0  0  0  0  0
   -1.3612    1.0880    1.8754 O   0  0  0  0  0  0  0  0  0  0  0  0
   -0.9514    0.4903   -0.2907 N   0  0  0  0  0  0  0  0  0  0  0  0
   -3.1762    2.8244    0.0156 C   0  0  0  0  0  0  0  0  0  0  0  0
   -2.8442    3.6142    1.2680 C   0  0  0  0  0  0  0  0  0  0  0  0
   -3.6169    3.6635    2.2149 O   0  0  0  0  0  0  0  0  0  0  0  0
   -1.6582    4.2809    1.2467 N   0  0  0  0  0  0  0  0  0  0  0  0
    1.3344    1.1678    0.0800 C   0  0  2  0  0  0  0  0  0  0  0  0
    1.2278    1.9876   -1.0795 O   0  0  0  0  0  0  0  0  0  0  0  0
    2.7984    0.7996    0.2335 C   0  0  0  0  0  0  0  0  0  0  0  0
    3.3218    0.3193   -1.0377 N   0  0  0  0  0  0  0  0  0  0  0  0
    4.7293   -0.5391   -1.0316 S   0  0  0  0  0  0  0  0  0  0  0  0
    4.5314   -1.6276   -0.0956 O   0  0  0  0  0  0  0  0  0  0  0  0
    5.0621   -0.7603   -2.4217 O   0  0  0  0  0  0  0  0  0  0  0  0
    5.9432    0.5501   -0.3327 C   0  0  0  0  0  0  0  0  0  0  0  0
    6.1888    0.5121    1.0385 C   0  0  0  0  0  0  0  0  0  0  0  0
    7.1012    1.4134    1.5832 C   0  0  0  0  0  0  0  0  0  0  0  0
    7.7489    2.3369    0.7648 C   0  0  0  0  0  0  0  0  0  0  0  0
    7.4949    2.3589   -0.6068 C   0  0  0  0  0  0  0  0  0  0  0  0
    6.5860    1.4654   -1.1655 C   0  0  0  0  0  0  0  0  0  0  0  0
    0.3440   -0.4600    1.0232 H   0  0  0  0  0  0  0  0  0  0  0  0
    1.6631   -1.6000   -0.7003 H   0  0  0  0  0  0  0  0  0  0  0  0
    0.8479   -0.7240   -1.9832 H   0  0  0  0  0  0  0  0  0  0  0  0
   -1.2164   -1.6066   -2.8766 H   0  0  0  0  0  0  0  0  0  0  0  0
   -3.2591   -2.9880   -2.6305 H   0  0  0  0  0  0  0  0  0  0  0  0
   -1.8901   -4.3448    1.1836 H   0  0  0  0  0  0  0  0  0  0  0  0
    0.1665   -2.9685    0.9421 H   0  0  0  0  0  0  0  0  0  0  0  0
   -5.2129   -3.1385   -1.3965 H   0  0  0  0  0  0  0  0  0  0  0  0
   -5.8556   -4.3638   -0.3014 H   0  0  0  0  0  0  0  0  0  0  0  0
   -6.1579   -2.3583    0.8751 H   0  0  0  0  0  0  0  0  0  0  0  0
   -4.7642   -3.0844    1.6226 H   0  0  0  0  0  0  0  0  0  0  0  0
   -3.2707   -1.4741    0.4622 H   0  0  0  0  0  0  0  0  0  0  0  0
   -4.5941   -0.9408   -0.5491 H   0  0  0  0  0  0  0  0  0  0  0  0
   -4.3197    1.6685    2.0079 H   0  0  0  0  0  0  0  0  0  0  0  0
   -3.4070    0.8083   -0.6477 H   0  0  0  0  0  0  0  0  0  0  0  0
   -1.4379    0.0229   -1.0456 H   0  0  0  0  0  0  0  0  0  0  0  0
   -2.4790    3.0421   -0.7930 H   0  0  0  0  0  0  0  0  0  0  0  0
   -4.1784    3.1117   -0.2990 H   0  0  0  0  0  0  0  0  0  0  0  0
   -0.9591    4.0522    0.5638 H   0  0  0  0  0  0  0  0  0  0  0  0
   -1.3459    4.6681    2.1216 H   0  0  0  0  0  0  0  0  0  0  0  0
    1.0418    1.7386    0.9674 H   0  0  0  0  0  0  0  0  0  0  0  0
    0.2892    1.9754   -1.3108 H   0  0  0  0  0  0  0  0  0  0  0  0
    3.3534    1.6706    0.5950 H   0  0  0  0  0  0  0  0  0  0  0  0
    2.9000    0.0019    0.9693 H   0  0  0  0  0  0  0  0  0  0  0  0
    3.2970    1.0094   -1.7792 H   0  0  0  0  0  0  0  0  0  0  0  0
    5.6935   -0.2292    1.6492 H   0  0  0  0  0  0  0  0  0  0  0  0
    7.3092    1.3900    2.6439 H   0  0  0  0  0  0  0  0  0  0  0  0
    8.4582    3.0318    1.1924 H   0  0  0  0  0  0  0  0  0  0  0  0
    8.0094    3.0672   -1.2412 H   0  0  0  0  0  0  0  0  0  0  0  0
    6.3919    1.4506   -2.2289 H   0  0  0  0  0  0  0  0  0  0  0  0
  1 24  1  0  0  0  0
  1 37  1  1  0  0  0
  2  3  1  0  0  0  0
  2 38  1  0  0  0  0
  2  1  1  0  0  0  0
  3  8  2  0  0  0  0
  4  5  2  0  0  0  0
  4  3  1  0  0  0  0
  5  6  1  0  0  0  0
  6  9  1  0  0  0  0
  6  7  2  0  0  0  0
  7 42  1  0  0  0  0
  8  7  1  0  0  0  0
  8 43  1  0  0  0  0
  9 10  1  0  0  0  0
 10 45  1  0  0  0  0
 10 11  1  0  0  0  0
 11 46  1  0  0  0  0
 11 47  1  0  0  0  0
 12 48  1  0  0  0  0
 12 11  1  0  0  0  0
 12 13  1  0  0  0  0
 13 14  2  0  0  0  0
 15 13  1  0  0  0  0
 15 50  1  0  0  0  0
 16 51  1  6  0  0  0
 16 17  1  0  0  0  0
 16 15  1  0  0  0  0
 17 18  2  0  0  0  0
 19  1  1  0  0  0  0
 19 17  1  0  0  0  0
 20 16  1  0  0  0  0
 20 21  1  0  0  0  0
 21 22  2  0  0  0  0
 23 21  1  0  0  0  0
 23 56  1  0  0  0  0
 24 26  1  0  0  0  0
 24 57  1  1  0  0  0
 25 24  1  0  0  0  0
 26 59  1  0  0  0  0
 26 60  1  0  0  0  0
 27 28  1  0  0  0  0
 27 26  1  0  0  0  0
 28 31  1  0  0  0  0
 28 29  2  0  0  0  0
 30 28  2  0  0  0  0
 31 32  2  0  0  0  0
 32 33  1  0  0  0  0
 32 62  1  0  0  0  0
 33 63  1  0  0  0  0
 34 64  1  0  0  0  0
 34 33  2  0  0  0  0
 35 34  1  0  0  0  0
 36 35  2  0  0  0  0
 36 31  1  0  0  0  0
 39  2  1  0  0  0  0
 40  4  1  0  0  0  0
 41  5  1  0  0  0  0
 44 10  1  0  0  0  0
 49 12  1  0  0  0  0
 52 19  1  0  0  0  0
 53 20  1  0  0  0  0
 54 20  1  0  0  0  0
 55 23  1  0  0  0  0
 58 25  1  0  0  0  0
 61 27  1  0  0  0  0
 65 35  1  0  0  0  0
 66 36  1  0  0  0  0
M  END
