omegapdb_2byh_18.xyz
 OpenBabel11041815263D

 40 42  0  0  0  0  0  0  0  0999 V2000
    4.9223    2.4747   -0.3697 O   0  0  0  0  0  0  0  0  0  0  0  0
    4.9761    1.6593    0.5388 C   0  0  0  0  0  0  0  0  0  0  0  0
    6.2841    1.3341    1.2179 C   0  0  0  0  0  0  0  0  0  0  0  0
    3.7453    0.9586    1.0079 C   0  0  0  0  0  0  0  0  0  0  0  0
    3.7630    0.0274    2.0506 C   0  0  0  0  0  0  0  0  0  0  0  0
    2.5916   -0.6095    2.4440 C   0  0  0  0  0  0  0  0  0  0  0  0
    1.3807   -0.3138    1.8137 C   0  0  0  0  0  0  0  0  0  0  0  0
    1.3542    0.6421    0.7900 C   0  0  0  0  0  0  0  0  0  0  0  0
    2.5281    1.2576    0.3858 C   0  0  0  0  0  0  0  0  0  0  0  0
    0.2104   -0.9562    2.2531 N   0  0  0  0  0  0  0  0  0  0  0  0
   -0.8819   -1.3530    1.5088 C   0  0  0  0  0  0  0  0  0  0  0  0
   -1.9408   -1.6336    2.0534 O   0  0  0  0  0  0  0  0  0  0  0  0
   -0.6474   -1.4955    0.0596 C   0  0  0  0  0  0  0  0  0  0  0  0
    0.4549   -2.1314   -0.5370 C   0  0  0  0  0  0  0  0  0  0  0  0
    0.3196   -2.2164   -1.8696 N   0  0  0  0  0  0  0  0  0  0  0  0
   -0.8494   -1.6217   -2.1113 N   0  0  0  0  0  0  0  0  0  0  0  0
   -1.4990   -1.1694   -1.0022 C   0  0  0  0  0  0  0  0  0  0  0  0
   -2.7576   -0.4359   -1.0626 C   0  0  0  0  0  0  0  0  0  0  0  0
   -3.1477    0.3839    0.0032 C   0  0  0  0  0  0  0  0  0  0  0  0
   -4.3365    1.0949   -0.0151 C   0  0  0  0  0  0  0  0  0  0  0  0
   -4.7698    2.0903    1.3249 Cl  0  0  0  0  0  0  0  0  0  0  0  0
   -5.1895    1.0156   -1.1194 C   0  0  0  0  0  0  0  0  0  0  0  0
   -6.3461    1.7282   -1.0981 O   0  0  0  0  0  0  0  0  0  0  0  0
   -4.8080    0.2154   -2.1920 C   0  0  0  0  0  0  0  0  0  0  0  0
   -3.6136   -0.4964   -2.1715 C   0  0  0  0  0  0  0  0  0  0  0  0
   -3.2407   -1.2779   -3.2407 O   0  0  0  0  0  0  0  0  0  0  0  0
    7.0710    1.9217    0.7566 H   0  0  0  0  0  0  0  0  0  0  0  0
    6.5130    0.2734    1.1197 H   0  0  0  0  0  0  0  0  0  0  0  0
    6.2312    1.5637    2.2816 H   0  0  0  0  0  0  0  0  0  0  0  0
    4.6882   -0.2185    2.5519 H   0  0  0  0  0  0  0  0  0  0  0  0
    2.6100   -1.3501    3.2331 H   0  0  0  0  0  0  0  0  0  0  0  0
    0.4139    0.9024    0.3246 H   0  0  0  0  0  0  0  0  0  0  0  0
    2.5233    1.9947   -0.4048 H   0  0  0  0  0  0  0  0  0  0  0  0
    0.0726   -1.0559    3.2492 H   0  0  0  0  0  0  0  0  0  0  0  0
    1.3248   -2.5482   -0.0580 H   0  0  0  0  0  0  0  0  0  0  0  0
   -1.2075   -1.5724   -3.0516 H   0  0  0  0  0  0  0  0  0  0  0  0
   -2.5231    0.4613    0.8790 H   0  0  0  0  0  0  0  0  0  0  0  0
   -6.8230    1.5595   -1.9179 H   0  0  0  0  0  0  0  0  0  0  0  0
   -5.4527    0.1499   -3.0622 H   0  0  0  0  0  0  0  0  0  0  0  0
   -3.9447   -1.2529   -3.8976 H   0  0  0  0  0  0  0  0  0  0  0  0
  1  2  2  0  0  0  0
  2  4  1  0  0  0  0
  2  3  1  0  0  0  0
  3 29  1  0  0  0  0
  4  5  2  0  0  0  0
  5  6  1  0  0  0  0
  5 30  1  0  0  0  0
  6 31  1  0  0  0  0
  7 10  1  0  0  0  0
  7  6  2  0  0  0  0
  8  7  1  0  0  0  0
  9  8  2  0  0  0  0
  9  4  1  0  0  0  0
 10 34  1  0  0  0  0
 11 12  2  0  0  0  0
 11 10  1  0  0  0  0
 13 11  1  0  0  0  0
 14 35  1  0  0  0  0
 14 13  1  0  0  0  0
 15 14  2  0  0  0  0
 16 15  1  0  0  0  0
 16 17  1  0  0  0  0
 17 13  2  0  0  0  0
 18 17  1  0  0  0  0
 18 19  2  0  0  0  0
 19 37  1  0  0  0  0
 20 19  1  0  0  0  0
 20 21  1  0  0  0  0
 22 23  1  0  0  0  0
 22 20  2  0  0  0  0
 24 25  2  0  0  0  0
 24 22  1  0  0  0  0
 25 18  1  0  0  0  0
 26 25  1  0  0  0  0
 27  3  1  0  0  0  0
 28  3  1  0  0  0  0
 32  8  1  0  0  0  0
 33  9  1  0  0  0  0
 36 16  1  0  0  0  0
 38 23  1  0  0  0  0
 39 24  1  0  0  0  0
 40 26  1  0  0  0  0
M  END
