omegacsd_SPIRIL_07.xyz
 OpenBabel11041815263D

 57 60  0  0  1  0  0  0  0  0999 V2000
   -1.9948   -1.9142    1.0946 C   0  0  0  0  0  0  0  0  0  0  0  0
   -2.8739   -1.4925   -0.0789 C   0  0  1  0  0  0  0  0  0  0  0  0
   -4.1008   -2.3875   -0.2204 C   0  0  0  0  0  0  0  0  0  0  0  0
   -4.1261   -3.6061   -0.1756 O   0  0  0  0  0  0  0  0  0  0  0  0
   -5.1567   -1.5594   -0.4499 N   0  0  0  0  0  0  0  0  0  0  0  0
   -4.7775   -0.1702   -0.5417 C   0  0  0  0  0  0  0  0  0  0  0  0
   -3.5173   -0.1775    0.1897 N   0  0  0  0  0  0  0  0  0  0  0  0
   -2.6909    0.9720    0.0771 C   0  0  0  0  0  0  0  0  0  0  0  0
   -1.9704    1.3751    1.2093 C   0  0  0  0  0  0  0  0  0  0  0  0
   -1.0940    2.4558    1.1503 C   0  0  0  0  0  0  0  0  0  0  0  0
   -0.9468    3.1741   -0.0359 C   0  0  0  0  0  0  0  0  0  0  0  0
   -1.6877    2.8062   -1.1569 C   0  0  0  0  0  0  0  0  0  0  0  0
   -2.5475    1.7104   -1.1058 C   0  0  0  0  0  0  0  0  0  0  0  0
   -2.1242   -1.5244   -1.4270 C   0  0  0  0  0  0  0  0  0  0  0  0
   -1.2184   -2.7528   -1.5666 C   0  0  0  0  0  0  0  0  0  0  0  0
   -0.2943   -2.9031   -0.4434 N   0  0  0  0  0  0  0  0  0  0  0  0
    0.5921   -1.7469   -0.3570 C   0  0  0  0  0  0  0  0  0  0  0  0
    1.7080   -1.8849    0.6800 C   0  0  0  0  0  0  0  0  0  0  0  0
    2.3415   -0.5397    0.8465 C   0  0  0  0  0  0  0  0  0  0  0  0
    3.4347   -0.0615    0.2211 C   0  0  0  0  0  0  0  0  0  0  0  0
    3.8099    1.3564    0.4017 C   0  0  0  0  0  0  0  0  0  0  0  0
    2.8236    2.3497    0.4982 C   0  0  0  0  0  0  0  0  0  0  0  0
    3.1589    3.6866    0.6879 C   0  0  0  0  0  0  0  0  0  0  0  0
    4.4987    4.0336    0.7687 C   0  0  0  0  0  0  0  0  0  0  0  0
    5.5049    3.0872    0.6547 C   0  0  0  0  0  0  0  0  0  0  0  0
    5.1525    1.7540    0.4640 C   0  0  0  0  0  0  0  0  0  0  0  0
    4.8311    5.3254    0.9464 F   0  0  0  0  0  0  0  0  0  0  0  0
    4.3116   -0.8936   -0.6708 C   0  0  0  0  0  0  0  0  0  0  0  0
   -1.0996   -3.1092    0.7619 C   0  0  0  0  0  0  0  0  0  0  0  0
   -1.3705   -1.0663    1.3770 H   0  0  0  0  0  0  0  0  0  0  0  0
   -2.6341   -2.1405    1.9498 H   0  0  0  0  0  0  0  0  0  0  0  0
   -6.0546   -1.9193   -0.7262 H   0  0  0  0  0  0  0  0  0  0  0  0
   -5.4930    0.4844   -0.0436 H   0  0  0  0  0  0  0  0  0  0  0  0
   -4.6878    0.1397   -1.5917 H   0  0  0  0  0  0  0  0  0  0  0  0
   -2.1297    0.8427    2.1363 H   0  0  0  0  0  0  0  0  0  0  0  0
   -0.5452    2.7494    2.0354 H   0  0  0  0  0  0  0  0  0  0  0  0
   -0.2770    4.0221   -0.0819 H   0  0  0  0  0  0  0  0  0  0  0  0
   -1.5887    3.3638   -2.0785 H   0  0  0  0  0  0  0  0  0  0  0  0
   -3.0951    1.4269   -1.9939 H   0  0  0  0  0  0  0  0  0  0  0  0
   -2.8439   -1.4970   -2.2509 H   0  0  0  0  0  0  0  0  0  0  0  0
   -1.5215   -0.6189   -1.5077 H   0  0  0  0  0  0  0  0  0  0  0  0
   -0.6405   -2.6759   -2.4897 H   0  0  0  0  0  0  0  0  0  0  0  0
   -1.8243   -3.6581   -1.6234 H   0  0  0  0  0  0  0  0  0  0  0  0
    1.0533   -1.6127   -1.3393 H   0  0  0  0  0  0  0  0  0  0  0  0
    0.0603   -0.8082   -0.1433 H   0  0  0  0  0  0  0  0  0  0  0  0
    2.4107   -2.6553    0.3684 H   0  0  0  0  0  0  0  0  0  0  0  0
    1.2891   -2.2000    1.6359 H   0  0  0  0  0  0  0  0  0  0  0  0
    1.8018    0.1484    1.4902 H   0  0  0  0  0  0  0  0  0  0  0  0
    1.7822    2.0741    0.3946 H   0  0  0  0  0  0  0  0  0  0  0  0
    2.4033    4.4565    0.7551 H   0  0  0  0  0  0  0  0  0  0  0  0
    6.5383    3.3964    0.7156 H   0  0  0  0  0  0  0  0  0  0  0  0
    5.9371    1.0145    0.3824 H   0  0  0  0  0  0  0  0  0  0  0  0
    3.8745   -1.8681   -0.8715 H   0  0  0  0  0  0  0  0  0  0  0  0
    5.2906   -1.0580   -0.2176 H   0  0  0  0  0  0  0  0  0  0  0  0
    4.4791   -0.3872   -1.6217 H   0  0  0  0  0  0  0  0  0  0  0  0
   -0.4468   -3.3239    1.6071 H   0  0  0  0  0  0  0  0  0  0  0  0
   -1.7147   -3.9921    0.5933 H   0  0  0  0  0  0  0  0  0  0  0  0
  1 30  1  0  0  0  0
  1 31  1  0  0  0  0
  2 14  1  6  0  0  0
  2  7  1  0  0  0  0
  2  1  1  0  0  0  0
  3  4  2  0  0  0  0
  3  2  1  0  0  0  0
  5  3  1  0  0  0  0
  6  5  1  0  0  0  0
  6 33  1  0  0  0  0
  6  7  1  0  0  0  0
  8  7  1  0  0  0  0
  8  9  2  0  0  0  0
  9 35  1  0  0  0  0
 10  9  1  0  0  0  0
 10 36  1  0  0  0  0
 11 10  2  0  0  0  0
 12 13  2  0  0  0  0
 12 11  1  0  0  0  0
 13  8  1  0  0  0  0
 15 14  1  0  0  0  0
 15 16  1  0  0  0  0
 16 17  1  0  0  0  0
 16 29  1  0  0  0  0
 17 45  1  0  0  0  0
 17 18  1  0  0  0  0
 18 19  1  0  0  0  0
 18 47  1  0  0  0  0
 19 48  1  0  0  0  0
 20 21  1  0  0  0  0
 20 19  2  0  0  0  0
 21 26  2  0  0  0  0
 21 22  1  0  0  0  0
 22 23  2  0  0  0  0
 23 50  1  0  0  0  0
 23 24  1  0  0  0  0
 24 27  1  0  0  0  0
 25 51  1  0  0  0  0
 25 24  2  0  0  0  0
 26 25  1  0  0  0  0
 28 54  1  0  0  0  0
 28 20  1  0  0  0  0
 29  1  1  0  0  0  0
 29 56  1  0  0  0  0
 32  5  1  0  0  0  0
 34  6  1  0  0  0  0
 37 11  1  0  0  0  0
 38 12  1  0  0  0  0
 39 13  1  0  0  0  0
 40 14  1  0  0  0  0
 41 14  1  0  0  0  0
 42 15  1  0  0  0  0
 43 15  1  0  0  0  0
 44 17  1  0  0  0  0
 46 18  1  0  0  0  0
 49 22  1  0  0  0  0
 52 26  1  0  0  0  0
 53 28  1  0  0  0  0
 55 28  1  0  0  0  0
 57 29  1  0  0  0  0
M  END
