omegapdb_1xom_14.xyz
 OpenBabel11041815263D

 50 52  0  0  1  0  0  0  0  0999 V2000
    5.8547    2.9629   -0.0599 O   0  0  0  0  0  0  0  0  0  0  0  0
    5.7203    1.6458   -0.3820 C   0  0  0  0  0  0  0  0  0  0  0  0
    6.6978    0.9717   -0.5780 O   0  0  0  0  0  0  0  0  0  0  0  0
    4.2957    1.1330   -0.4241 C   0  0  1  0  0  0  0  0  0  0  0  0
    4.2144   -0.1981   -1.1594 C   0  0  0  0  0  0  0  0  0  0  0  0
    2.7836   -0.7209   -1.1809 C   0  0  0  0  0  0  0  0  0  0  0  0
    2.1951   -0.8721    0.2384 C   0  0  2  0  0  0  0  0  0  0  0  0
    2.3233    0.4695    0.9919 C   0  0  0  0  0  0  0  0  0  0  0  0
    3.7570    0.9860    1.0065 C   0  0  0  0  0  0  0  0  0  0  0  0
    2.9968   -1.8633    0.9579 C   0  0  0  0  0  0  0  0  0  0  0  0
    3.6610   -2.6378    1.5366 N   0  0  0  0  0  0  0  0  0  0  0  0
    0.7462   -1.3212    0.1807 C   0  0  0  0  0  0  0  0  0  0  0  0
    0.3073   -2.5200    0.7366 C   0  0  0  0  0  0  0  0  0  0  0  0
   -1.0340   -2.9006    0.6556 C   0  0  0  0  0  0  0  0  0  0  0  0
   -1.9654   -2.0849    0.0151 C   0  0  0  0  0  0  0  0  0  0  0  0
   -3.2836   -2.3745   -0.1351 O   0  0  0  0  0  0  0  0  0  0  0  0
   -3.7111   -3.6263    0.3804 C   0  0  0  0  0  0  0  0  0  0  0  0
   -1.5320   -0.8630   -0.5381 C   0  0  0  0  0  0  0  0  0  0  0  0
   -0.1956   -0.5013   -0.4535 C   0  0  0  0  0  0  0  0  0  0  0  0
   -2.4054   -0.0516   -1.2106 O   0  0  0  0  0  0  0  0  0  0  0  0
   -3.3228    0.6294   -0.3419 C   0  0  0  0  0  0  0  0  0  0  0  0
   -4.3610    1.3574   -1.1940 C   0  0  0  0  0  0  0  0  0  0  0  0
   -4.7327    2.6266   -0.3924 C   0  0  0  0  0  0  0  0  0  0  0  0
   -3.9160    2.5375    0.9106 C   0  0  0  0  0  0  0  0  0  0  0  0
   -2.6884    1.7263    0.5048 C   0  0  0  0  0  0  0  0  0  0  0  0
    4.9774    3.3495    0.0407 H   0  0  0  0  0  0  0  0  0  0  0  0
    3.6773    1.8714   -0.9493 H   0  0  0  0  0  0  0  0  0  0  0  0
    4.8757   -0.9111   -0.6652 H   0  0  0  0  0  0  0  0  0  0  0  0
    4.5850   -0.0838   -2.1780 H   0  0  0  0  0  0  0  0  0  0  0  0
    2.1396   -0.0301   -1.7299 H   0  0  0  0  0  0  0  0  0  0  0  0
    2.7299   -1.6843   -1.6894 H   0  0  0  0  0  0  0  0  0  0  0  0
    1.6748    1.1918    0.4908 H   0  0  0  0  0  0  0  0  0  0  0  0
    1.9462    0.3430    2.0079 H   0  0  0  0  0  0  0  0  0  0  0  0
    3.7952    1.9388    1.5377 H   0  0  0  0  0  0  0  0  0  0  0  0
    4.3995    0.2909    1.5528 H   0  0  0  0  0  0  0  0  0  0  0  0
    1.0086   -3.1748    1.2358 H   0  0  0  0  0  0  0  0  0  0  0  0
   -1.3352   -3.8422    1.0882 H   0  0  0  0  0  0  0  0  0  0  0  0
   -3.5634   -3.6810    1.4599 H   0  0  0  0  0  0  0  0  0  0  0  0
   -3.1825   -4.4500   -0.1009 H   0  0  0  0  0  0  0  0  0  0  0  0
   -4.7697   -3.6931    0.1548 H   0  0  0  0  0  0  0  0  0  0  0  0
    0.0823    0.4402   -0.9090 H   0  0  0  0  0  0  0  0  0  0  0  0
   -3.8020   -0.1052    0.3093 H   0  0  0  0  0  0  0  0  0  0  0  0
   -5.2166    0.7216   -1.4088 H   0  0  0  0  0  0  0  0  0  0  0  0
   -3.8925    1.6099   -2.1445 H   0  0  0  0  0  0  0  0  0  0  0  0
   -5.8008    2.7015   -0.2010 H   0  0  0  0  0  0  0  0  0  0  0  0
   -4.4438    3.5177   -0.9478 H   0  0  0  0  0  0  0  0  0  0  0  0
   -3.6727    3.5130    1.3271 H   0  0  0  0  0  0  0  0  0  0  0  0
   -4.4772    1.9882    1.6687 H   0  0  0  0  0  0  0  0  0  0  0  0
   -2.1088    1.3450    1.3441 H   0  0  0  0  0  0  0  0  0  0  0  0
   -2.0317    2.3235   -0.1334 H   0  0  0  0  0  0  0  0  0  0  0  0
  1 26  1  0  0  0  0
  2  1  1  0  0  0  0
  3  2  2  0  0  0  0
  4 27  1  6  0  0  0
  4  2  1  0  0  0  0
  4  9  1  0  0  0  0
  5 28  1  0  0  0  0
  5  4  1  0  0  0  0
  6  5  1  0  0  0  0
  6  7  1  0  0  0  0
  7 12  1  6  0  0  0
  7 10  1  0  0  0  0
  7  8  1  0  0  0  0
  8  9  1  0  0  0  0
  8 33  1  0  0  0  0
  9 34  1  0  0  0  0
  9 35  1  0  0  0  0
 10 11  3  0  0  0  0
 12 13  2  0  0  0  0
 13 36  1  0  0  0  0
 14 13  1  0  0  0  0
 14 37  1  0  0  0  0
 15 14  2  0  0  0  0
 16 15  1  0  0  0  0
 16 17  1  0  0  0  0
 17 38  1  0  0  0  0
 18 19  2  0  0  0  0
 18 15  1  0  0  0  0
 19 12  1  0  0  0  0
 20 18  1  0  0  0  0
 20 21  1  0  0  0  0
 21 42  1  0  0  0  0
 21 25  1  0  0  0  0
 22 23  1  0  0  0  0
 22 21  1  0  0  0  0
 23 45  1  0  0  0  0
 23 24  1  0  0  0  0
 24 47  1  0  0  0  0
 24 48  1  0  0  0  0
 25 24  1  0  0  0  0
 25 49  1  0  0  0  0
 29  5  1  0  0  0  0
 30  6  1  0  0  0  0
 31  6  1  0  0  0  0
 32  8  1  0  0  0  0
 39 17  1  0  0  0  0
 40 17  1  0  0  0  0
 41 19  1  0  0  0  0
 43 22  1  0  0  0  0
 44 22  1  0  0  0  0
 46 23  1  0  0  0  0
 50 25  1  0  0  0  0
M  END
