omegapdb_1m5f_02.xyz
 OpenBabel11041815263D

 25 25  0  0  1  0  0  0  0  0999 V2000
   -1.7937   -3.5360   -0.8869 O   0  0  0  0  0  0  0  0  0  0  0  0
   -0.9243   -2.5146   -0.8692 C   0  0  0  0  0  0  0  0  0  0  0  0
    0.2187   -2.5915   -1.2733 O   0  0  0  0  0  0  0  0  0  0  0  0
   -1.4979   -1.2794   -0.3066 C   0  0  0  0  0  0  0  0  0  0  0  0
   -2.6905   -1.2884    0.2896 N   0  0  0  0  0  0  0  0  0  0  0  0
   -2.8934    0.0084    0.6884 O   0  0  0  0  0  0  0  0  0  0  0  0
   -1.8379    0.7771    0.3309 C   0  0  0  0  0  0  0  0  0  0  0  0
   -0.9035    0.0081   -0.3144 C   0  0  0  0  0  0  0  0  0  0  0  0
    0.4162    0.4333   -0.8570 C   0  0  0  0  0  0  0  0  0  0  0  0
    1.5716   -0.0120    0.0420 C   0  0  2  0  0  0  0  0  0  0  0  0
    1.4998    0.4212    1.4385 N   0  0  0  0  0  0  0  0  0  0  0  0
    2.9050    0.4419   -0.5555 C   0  0  0  0  0  0  0  0  0  0  0  0
    3.0952    0.5618   -1.7408 O   0  0  0  0  0  0  0  0  0  0  0  0
    3.8553    0.6673    0.3648 O   0  0  0  0  0  0  0  0  0  0  0  0
   -1.9203    2.2140    0.6844 C   0  0  0  0  0  0  0  0  0  0  0  0
   -1.3051   -4.2833   -1.2651 H   0  0  0  0  0  0  0  0  0  0  0  0
    0.5815    0.0194   -1.8491 H   0  0  0  0  0  0  0  0  0  0  0  0
    0.4410    1.5209   -0.9542 H   0  0  0  0  0  0  0  0  0  0  0  0
    1.6018   -1.1027    0.0371 H   0  0  0  0  0  0  0  0  0  0  0  0
    1.1655    1.3770    1.4983 H   0  0  0  0  0  0  0  0  0  0  0  0
    0.8483   -0.1506    1.9596 H   0  0  0  0  0  0  0  0  0  0  0  0
    3.3911    0.5531    1.2203 H   0  0  0  0  0  0  0  0  0  0  0  0
   -1.0871    2.7521    0.2398 H   0  0  0  0  0  0  0  0  0  0  0  0
   -2.8475    2.6475    0.3144 H   0  0  0  0  0  0  0  0  0  0  0  0
   -1.8899    2.3551    1.7642 H   0  0  0  0  0  0  0  0  0  0  0  0
  1  2  1  0  0  0  0
  2  4  1  0  0  0  0
  3  2  2  0  0  0  0
  4  5  2  0  0  0  0
  5  6  1  0  0  0  0
  7 15  1  0  0  0  0
  7  6  1  0  0  0  0
  8  4  1  0  0  0  0
  8  7  2  0  0  0  0
  9  8  1  0  0  0  0
  9 10  1  0  0  0  0
 10 19  1  1  0  0  0
 10 11  1  0  0  0  0
 11 20  1  0  0  0  0
 11 21  1  0  0  0  0
 12 10  1  0  0  0  0
 12 14  1  0  0  0  0
 13 12  2  0  0  0  0
 14 22  1  0  0  0  0
 15 25  1  0  0  0  0
 16  1  1  0  0  0  0
 17  9  1  0  0  0  0
 18  9  1  0  0  0  0
 23 15  1  0  0  0  0
 24 15  1  0  0  0  0
M  END
