omegapdb_1v2k_19.xyz
 OpenBabel11041815263D

 61 65  0  0  0  0  0  0  0  0999 V2000
    7.5395   -1.0819   -2.5844 N   0  0  0  0  0  0  0  0  0  0  0  0
    6.5450   -1.9494   -2.3387 C   0  0  0  0  0  0  0  0  0  0  0  0
    5.3252   -1.6060   -1.7761 C   0  0  0  0  0  0  0  0  0  0  0  0
    5.0692   -0.2709   -1.4295 C   0  0  0  0  0  0  0  0  0  0  0  0
    6.1001    0.6406   -1.6867 C   0  0  0  0  0  0  0  0  0  0  0  0
    7.2912    0.1879   -2.2491 C   0  0  0  0  0  0  0  0  0  0  0  0
    3.8576    0.0862   -0.8229 N   0  0  0  0  0  0  0  0  0  0  0  0
    3.7343    1.4672   -0.3817 C   0  0  0  0  0  0  0  0  0  0  0  0
    2.5622    1.6122    0.5801 C   0  0  0  0  0  0  0  0  0  0  0  0
    1.2769    1.1131   -0.0798 C   0  0  0  0  0  0  0  0  0  0  0  0
    1.4526   -0.3195   -0.5834 C   0  0  0  0  0  0  0  0  0  0  0  0
    2.6514   -0.3716   -1.5161 C   0  0  0  0  0  0  0  0  0  0  0  0
    0.0099    1.3966    0.7129 C   0  0  0  0  0  0  0  0  0  0  0  0
   -0.8104    2.1956    0.2526 O   0  0  0  0  0  0  0  0  0  0  0  0
   -0.1973    0.8038    1.9275 N   0  0  0  0  0  0  0  0  0  0  0  0
   -1.4664    1.0458    2.6103 C   0  0  0  0  0  0  0  0  0  0  0  0
   -2.0487   -0.2939    3.0940 C   0  0  0  0  0  0  0  0  0  0  0  0
   -1.5855   -1.3246    2.1840 N   0  0  0  0  0  0  0  0  0  0  0  0
   -0.1658   -1.6273    2.2804 C   0  0  0  0  0  0  0  0  0  0  0  0
    0.5570   -0.2859    2.5112 C   0  0  0  0  0  0  0  0  0  0  0  0
   -2.6374   -2.4561    1.6191 S   0  0  0  0  0  0  0  0  0  0  0  0
   -1.8398   -3.3688    0.8225 O   0  0  0  0  0  0  0  0  0  0  0  0
   -3.4912   -2.9653    2.6765 O   0  0  0  0  0  0  0  0  0  0  0  0
   -3.6712   -1.4635    0.5713 C   0  0  0  0  0  0  0  0  0  0  0  0
   -3.1492   -0.3789   -0.1009 C   0  0  0  0  0  0  0  0  0  0  0  0
   -3.9790    0.3842   -0.9498 C   0  0  0  0  0  0  0  0  0  0  0  0
   -5.3445   -0.0057   -1.1240 C   0  0  0  0  0  0  0  0  0  0  0  0
   -5.8342   -1.1328   -0.4216 C   0  0  0  0  0  0  0  0  0  0  0  0
   -5.0197   -1.8509    0.4246 C   0  0  0  0  0  0  0  0  0  0  0  0
   -6.1731    0.7506   -1.9816 C   0  0  0  0  0  0  0  0  0  0  0  0
   -5.6574    1.8505   -2.6284 C   0  0  0  0  0  0  0  0  0  0  0  0
   -4.3174    2.2531   -2.4516 C   0  0  0  0  0  0  0  0  0  0  0  0
   -3.4911    1.5305   -1.6220 C   0  0  0  0  0  0  0  0  0  0  0  0
   -6.6705    2.7810   -3.6835 Cl  0  0  0  0  0  0  0  0  0  0  0  0
    6.7406   -2.9827   -2.5978 H   0  0  0  0  0  0  0  0  0  0  0  0
    4.5977   -2.3805   -1.5806 H   0  0  0  0  0  0  0  0  0  0  0  0
    5.9938    1.6932   -1.4756 H   0  0  0  0  0  0  0  0  0  0  0  0
    8.0855    0.8973   -2.4486 H   0  0  0  0  0  0  0  0  0  0  0  0
    4.6532    1.7490    0.1292 H   0  0  0  0  0  0  0  0  0  0  0  0
    3.5989    2.1491   -1.2363 H   0  0  0  0  0  0  0  0  0  0  0  0
    2.7934    1.0550    1.4875 H   0  0  0  0  0  0  0  0  0  0  0  0
    2.4527    2.6622    0.8567 H   0  0  0  0  0  0  0  0  0  0  0  0
    1.1232    1.7336   -0.9665 H   0  0  0  0  0  0  0  0  0  0  0  0
    0.5580   -0.6481   -1.1167 H   0  0  0  0  0  0  0  0  0  0  0  0
    1.6328   -1.0195    0.2299 H   0  0  0  0  0  0  0  0  0  0  0  0
    2.4644    0.2605   -2.3981 H   0  0  0  0  0  0  0  0  0  0  0  0
    2.8071   -1.3866   -1.8692 H   0  0  0  0  0  0  0  0  0  0  0  0
   -2.1274    1.5242    1.8937 H   0  0  0  0  0  0  0  0  0  0  0  0
   -1.3185    1.7251    3.4536 H   0  0  0  0  0  0  0  0  0  0  0  0
   -1.7435   -0.5260    4.1187 H   0  0  0  0  0  0  0  0  0  0  0  0
   -3.1364   -0.2569    3.0819 H   0  0  0  0  0  0  0  0  0  0  0  0
    0.1441   -2.0946    1.3500 H   0  0  0  0  0  0  0  0  0  0  0  0
    0.0593   -2.3112    3.1057 H   0  0  0  0  0  0  0  0  0  0  0  0
    0.6448   -0.0884    3.5816 H   0  0  0  0  0  0  0  0  0  0  0  0
    1.5628   -0.3287    2.1129 H   0  0  0  0  0  0  0  0  0  0  0  0
   -2.1141   -0.0951    0.0291 H   0  0  0  0  0  0  0  0  0  0  0  0
   -6.8703   -1.4205   -0.5488 H   0  0  0  0  0  0  0  0  0  0  0  0
   -5.3945   -2.6957    0.9844 H   0  0  0  0  0  0  0  0  0  0  0  0
   -7.2069    0.4675   -2.1267 H   0  0  0  0  0  0  0  0  0  0  0  0
   -3.9564    3.1314   -2.9672 H   0  0  0  0  0  0  0  0  0  0  0  0
   -2.4671    1.8406   -1.4546 H   0  0  0  0  0  0  0  0  0  0  0  0
  1  2  2  0  0  0  0
  1  6  1  0  0  0  0
  2  3  1  0  0  0  0
  3 36  1  0  0  0  0
  3  4  2  0  0  0  0
  4  7  1  0  0  0  0
  5 37  1  0  0  0  0
  5  4  1  0  0  0  0
  6  5  2  0  0  0  0
  7  8  1  0  0  0  0
  8 39  1  0  0  0  0
  8  9  1  0  0  0  0
  9 42  1  0  0  0  0
  9 41  1  0  0  0  0
 10  9  1  0  0  0  0
 10 13  1  0  0  0  0
 11 10  1  0  0  0  0
 11 45  1  0  0  0  0
 12  7  1  0  0  0  0
 12 11  1  0  0  0  0
 13 15  1  0  0  0  0
 14 13  2  0  0  0  0
 15 20  1  0  0  0  0
 15 16  1  0  0  0  0
 16 17  1  0  0  0  0
 16 49  1  0  0  0  0
 17 50  1  0  0  0  0
 18 19  1  0  0  0  0
 18 17  1  0  0  0  0
 19 20  1  0  0  0  0
 19 53  1  0  0  0  0
 20 54  1  0  0  0  0
 21 18  1  0  0  0  0
 21 23  2  0  0  0  0
 22 21  2  0  0  0  0
 24 21  1  0  0  0  0
 25 56  1  0  0  0  0
 25 24  2  0  0  0  0
 26 25  1  0  0  0  0
 27 26  1  0  0  0  0
 27 28  1  0  0  0  0
 28 29  2  0  0  0  0
 29 24  1  0  0  0  0
 29 58  1  0  0  0  0
 30 27  2  0  0  0  0
 31 32  2  0  0  0  0
 31 30  1  0  0  0  0
 32 33  1  0  0  0  0
 33 61  1  0  0  0  0
 33 26  2  0  0  0  0
 34 31  1  0  0  0  0
 35  2  1  0  0  0  0
 38  6  1  0  0  0  0
 40  8  1  0  0  0  0
 43 10  1  0  0  0  0
 44 11  1  0  0  0  0
 46 12  1  0  0  0  0
 47 12  1  0  0  0  0
 48 16  1  0  0  0  0
 51 17  1  0  0  0  0
 52 19  1  0  0  0  0
 55 20  1  0  0  0  0
 57 28  1  0  0  0  0
 59 30  1  0  0  0  0
 60 32  1  0  0  0  0
M  END
