omegacsd_FIBREN_18.xyz
 OpenBabel11041815263D

 39 41  0  0  1  0  0  0  0  0999 V2000
   -2.6614    1.4054   -1.2895 N   0  0  0  0  0  0  0  0  0  0  0  0
   -1.3922    1.0773   -1.5769 C   0  0  0  0  0  0  0  0  0  0  0  0
   -0.5726    0.3096   -0.8257 N   0  0  0  0  0  0  0  0  0  0  0  0
   -1.0182   -0.2252    0.3103 C   0  0  0  0  0  0  0  0  0  0  0  0
   -2.3336    0.0508    0.7069 C   0  0  0  0  0  0  0  0  0  0  0  0
   -3.0524    0.8649   -0.1475 C   0  0  0  0  0  0  0  0  0  0  0  0
   -4.2991    1.0161    0.3989 O   0  0  0  0  0  0  0  0  0  0  0  0
   -4.2479    0.2766    1.5512 C   0  0  0  0  0  0  0  0  0  0  0  0
   -3.1107   -0.3210    1.7906 N   0  0  0  0  0  0  0  0  0  0  0  0
   -5.4775    0.2473    2.3717 C   0  0  0  0  0  0  0  0  0  0  0  0
   -0.1800   -0.9969    1.0487 N   0  0  0  0  0  0  0  0  0  0  0  0
    1.0905   -1.5056    0.5653 C   0  0  1  0  0  0  0  0  0  0  0  0
    0.9951   -2.2108   -0.8084 C   0  0  0  0  0  0  0  0  0  0  0  0
    0.9628   -1.4293   -2.1136 C   0  0  0  0  0  0  0  0  0  0  0  0
    0.2008   -1.7132   -3.0056 O   0  0  0  0  0  0  0  0  0  0  0  0
    1.9318   -0.5108   -2.3134 O   0  0  0  0  0  0  0  0  0  0  0  0
    2.2195   -0.4945    0.6507 C   0  0  0  0  0  0  0  0  0  0  0  0
    3.5348   -0.9344    0.4477 C   0  0  0  0  0  0  0  0  0  0  0  0
    4.6030   -0.0424    0.5066 C   0  0  0  0  0  0  0  0  0  0  0  0
    4.3697    1.3050    0.7752 C   0  0  0  0  0  0  0  0  0  0  0  0
    3.0667    1.7473    0.9925 C   0  0  0  0  0  0  0  0  0  0  0  0
    1.9979    0.8547    0.9326 C   0  0  0  0  0  0  0  0  0  0  0  0
   -0.8077    1.5837   -2.8547 C   0  0  0  0  0  0  0  0  0  0  0  0
   -5.7518    1.2539    2.6821 H   0  0  0  0  0  0  0  0  0  0  0  0
   -5.2998   -0.3674    3.2478 H   0  0  0  0  0  0  0  0  0  0  0  0
   -6.3066   -0.1648    1.7993 H   0  0  0  0  0  0  0  0  0  0  0  0
   -0.5927   -1.4467    1.8492 H   0  0  0  0  0  0  0  0  0  0  0  0
    1.3439   -2.3021    1.2684 H   0  0  0  0  0  0  0  0  0  0  0  0
    0.1073   -2.8400   -0.8103 H   0  0  0  0  0  0  0  0  0  0  0  0
    1.8583   -2.8770   -0.8910 H   0  0  0  0  0  0  0  0  0  0  0  0
    2.3730   -0.3239   -1.4710 H   0  0  0  0  0  0  0  0  0  0  0  0
    3.7270   -1.9814    0.2449 H   0  0  0  0  0  0  0  0  0  0  0  0
    5.6107   -0.4000    0.3463 H   0  0  0  0  0  0  0  0  0  0  0  0
    5.1955    2.0013    0.8179 H   0  0  0  0  0  0  0  0  0  0  0  0
    2.8779    2.7905    1.2060 H   0  0  0  0  0  0  0  0  0  0  0  0
    0.9910    1.2045    1.1034 H   0  0  0  0  0  0  0  0  0  0  0  0
    0.1004    2.1496   -2.6531 H   0  0  0  0  0  0  0  0  0  0  0  0
   -1.5282    2.2099   -3.3710 H   0  0  0  0  0  0  0  0  0  0  0  0
   -0.5249    0.7391   -3.4827 H   0  0  0  0  0  0  0  0  0  0  0  0
  1  6  1  0  0  0  0
  2  1  2  0  0  0  0
  2  3  1  0  0  0  0
  3  4  2  0  0  0  0
  4  5  1  0  0  0  0
  4 11  1  0  0  0  0
  5  9  1  0  0  0  0
  6  7  1  0  0  0  0
  6  5  2  0  0  0  0
  7  8  1  0  0  0  0
  8  9  2  0  0  0  0
  8 10  1  0  0  0  0
 10 24  1  0  0  0  0
 10 25  1  0  0  0  0
 11 27  1  0  0  0  0
 12 17  1  0  0  0  0
 12 11  1  0  0  0  0
 12 28  1  1  0  0  0
 13 12  1  0  0  0  0
 14 13  1  0  0  0  0
 15 14  2  0  0  0  0
 16 14  1  0  0  0  0
 16 31  1  0  0  0  0
 17 22  2  0  0  0  0
 18 19  2  0  0  0  0
 18 17  1  0  0  0  0
 19 20  1  0  0  0  0
 20 34  1  0  0  0  0
 20 21  2  0  0  0  0
 21 35  1  0  0  0  0
 22 21  1  0  0  0  0
 22 36  1  0  0  0  0
 23 37  1  0  0  0  0
 23  2  1  0  0  0  0
 26 10  1  0  0  0  0
 29 13  1  0  0  0  0
 30 13  1  0  0  0  0
 32 18  1  0  0  0  0
 33 19  1  0  0  0  0
 38 23  1  0  0  0  0
 39 23  1  0  0  0  0
M  END
