omegapdb_1v2k_00.xyz
 OpenBabel11041815263D

 61 65  0  0  0  0  0  0  0  0999 V2000
    7.6328    2.8413   -1.3788 N   0  0  0  0  0  0  0  0  0  0  0  0
    7.0836    1.9019   -2.1599 C   0  0  0  0  0  0  0  0  0  0  0  0
    6.3000    0.8490   -1.7068 C   0  0  0  0  0  0  0  0  0  0  0  0
    6.0414    0.7032   -0.3318 C   0  0  0  0  0  0  0  0  0  0  0  0
    6.6091    1.6937    0.4896 C   0  0  0  0  0  0  0  0  0  0  0  0
    7.3773    2.7055   -0.0706 C   0  0  0  0  0  0  0  0  0  0  0  0
    5.3221   -0.3656    0.1800 N   0  0  0  0  0  0  0  0  0  0  0  0
    4.7113   -0.2295    1.4999 C   0  0  0  0  0  0  0  0  0  0  0  0
    3.4500    0.6300    1.4276 C   0  0  0  0  0  0  0  0  0  0  0  0
    2.4496    0.1070    0.3888 C   0  0  0  0  0  0  0  0  0  0  0  0
    3.1536   -0.1953   -0.9494 C   0  0  0  0  0  0  0  0  0  0  0  0
    4.3945   -1.0523   -0.7115 C   0  0  0  0  0  0  0  0  0  0  0  0
    1.7373   -1.1396    0.9015 C   0  0  0  0  0  0  0  0  0  0  0  0
    2.1299   -1.7471    1.8972 O   0  0  0  0  0  0  0  0  0  0  0  0
    0.6760   -1.5946    0.1619 N   0  0  0  0  0  0  0  0  0  0  0  0
   -0.0994   -0.7936   -0.7724 C   0  0  0  0  0  0  0  0  0  0  0  0
   -1.3685   -0.2957   -0.0831 C   0  0  0  0  0  0  0  0  0  0  0  0
   -2.1335   -1.3842    0.5342 N   0  0  0  0  0  0  0  0  0  0  0  0
   -1.3146   -2.2627    1.3859 C   0  0  0  0  0  0  0  0  0  0  0  0
   -0.0657   -2.7459    0.6622 C   0  0  0  0  0  0  0  0  0  0  0  0
   -3.1949   -2.1531   -0.4959 S   0  0  0  0  0  0  0  0  0  0  0  0
   -3.7395   -3.2725    0.2455 O   0  0  0  0  0  0  0  0  0  0  0  0
   -2.6119   -2.3682   -1.8130 O   0  0  0  0  0  0  0  0  0  0  0  0
   -4.4249   -0.8885   -0.6750 C   0  0  0  0  0  0  0  0  0  0  0  0
   -5.1180   -0.4761    0.4430 C   0  0  0  0  0  0  0  0  0  0  0  0
   -6.1211    0.5054    0.3143 C   0  0  0  0  0  0  0  0  0  0  0  0
   -6.3998    1.0552   -0.9784 C   0  0  0  0  0  0  0  0  0  0  0  0
   -5.6652    0.5963   -2.0966 C   0  0  0  0  0  0  0  0  0  0  0  0
   -4.6878   -0.3642   -1.9554 C   0  0  0  0  0  0  0  0  0  0  0  0
   -7.4030    2.0410   -1.1084 C   0  0  0  0  0  0  0  0  0  0  0  0
   -8.0977    2.4584    0.0034 C   0  0  0  0  0  0  0  0  0  0  0  0
   -7.8346    1.9241    1.2822 C   0  0  0  0  0  0  0  0  0  0  0  0
   -6.8616    0.9641    1.4300 C   0  0  0  0  0  0  0  0  0  0  0  0
   -9.3283    3.6668   -0.1519 Cl  0  0  0  0  0  0  0  0  0  0  0  0
    7.2754    1.9946   -3.2225 H   0  0  0  0  0  0  0  0  0  0  0  0
    5.9103    0.1549   -2.4348 H   0  0  0  0  0  0  0  0  0  0  0  0
    6.4712    1.6910    1.5592 H   0  0  0  0  0  0  0  0  0  0  0  0
    7.8095    3.4574    0.5790 H   0  0  0  0  0  0  0  0  0  0  0  0
    5.4285    0.1836    2.2034 H   0  0  0  0  0  0  0  0  0  0  0  0
    4.4546   -1.2273    1.8471 H   0  0  0  0  0  0  0  0  0  0  0  0
    3.7349    1.6470    1.1474 H   0  0  0  0  0  0  0  0  0  0  0  0
    2.9745    0.6700    2.4076 H   0  0  0  0  0  0  0  0  0  0  0  0
    1.7038    0.8872    0.2233 H   0  0  0  0  0  0  0  0  0  0  0  0
    2.4753   -0.7020   -1.6374 H   0  0  0  0  0  0  0  0  0  0  0  0
    3.4615    0.7441   -1.4150 H   0  0  0  0  0  0  0  0  0  0  0  0
    4.8854   -1.3123   -1.6455 H   0  0  0  0  0  0  0  0  0  0  0  0
    4.1179   -1.9907   -0.2267 H   0  0  0  0  0  0  0  0  0  0  0  0
   -0.3716   -1.4176   -1.6242 H   0  0  0  0  0  0  0  0  0  0  0  0
    0.4822    0.0477   -1.1350 H   0  0  0  0  0  0  0  0  0  0  0  0
   -1.1012    0.3988    0.7176 H   0  0  0  0  0  0  0  0  0  0  0  0
   -2.0117    0.2333   -0.7879 H   0  0  0  0  0  0  0  0  0  0  0  0
   -1.0208   -1.6725    2.2561 H   0  0  0  0  0  0  0  0  0  0  0  0
   -1.9357   -3.0918    1.7150 H   0  0  0  0  0  0  0  0  0  0  0  0
   -0.3418   -3.3751   -0.1858 H   0  0  0  0  0  0  0  0  0  0  0  0
    0.5818   -3.2979    1.3372 H   0  0  0  0  0  0  0  0  0  0  0  0
   -4.8951   -0.9039    1.4123 H   0  0  0  0  0  0  0  0  0  0  0  0
   -5.8820    1.0110   -3.0729 H   0  0  0  0  0  0  0  0  0  0  0  0
   -4.1242   -0.7317   -2.8010 H   0  0  0  0  0  0  0  0  0  0  0  0
   -7.6238    2.4642   -2.0791 H   0  0  0  0  0  0  0  0  0  0  0  0
   -8.4031    2.2766    2.1308 H   0  0  0  0  0  0  0  0  0  0  0  0
   -6.6542    0.5475    2.4074 H   0  0  0  0  0  0  0  0  0  0  0  0
  1  6  2  0  0  0  0
  2  3  2  0  0  0  0
  2  1  1  0  0  0  0
  3  4  1  0  0  0  0
  4  7  1  0  0  0  0
  4  5  2  0  0  0  0
  5 37  1  0  0  0  0
  6  5  1  0  0  0  0
  6 38  1  0  0  0  0
  7  8  1  0  0  0  0
  8 40  1  0  0  0  0
  8 39  1  0  0  0  0
  9  8  1  0  0  0  0
  9 42  1  0  0  0  0
 10 13  1  0  0  0  0
 10  9  1  0  0  0  0
 11 12  1  0  0  0  0
 11 10  1  0  0  0  0
 12 47  1  0  0  0  0
 12  7  1  0  0  0  0
 13 14  2  0  0  0  0
 15 20  1  0  0  0  0
 15 13  1  0  0  0  0
 16 17  1  0  0  0  0
 16 15  1  0  0  0  0
 17 18  1  0  0  0  0
 17 50  1  0  0  0  0
 18 19  1  0  0  0  0
 19 53  1  0  0  0  0
 19 52  1  0  0  0  0
 20 55  1  0  0  0  0
 20 19  1  0  0  0  0
 21 22  2  0  0  0  0
 21 18  1  0  0  0  0
 23 21  2  0  0  0  0
 24 21  1  0  0  0  0
 24 25  2  0  0  0  0
 25 56  1  0  0  0  0
 26 25  1  0  0  0  0
 26 33  2  0  0  0  0
 27 26  1  0  0  0  0
 28 29  2  0  0  0  0
 28 27  1  0  0  0  0
 29 24  1  0  0  0  0
 30 27  2  0  0  0  0
 30 31  1  0  0  0  0
 31 32  2  0  0  0  0
 32 33  1  0  0  0  0
 32 60  1  0  0  0  0
 33 61  1  0  0  0  0
 34 31  1  0  0  0  0
 35  2  1  0  0  0  0
 36  3  1  0  0  0  0
 41  9  1  0  0  0  0
 43 10  1  0  0  0  0
 44 11  1  0  0  0  0
 45 11  1  0  0  0  0
 46 12  1  0  0  0  0
 48 16  1  0  0  0  0
 49 16  1  0  0  0  0
 51 17  1  0  0  0  0
 54 20  1  0  0  0  0
 57 28  1  0  0  0  0
 58 29  1  0  0  0  0
 59 30  1  0  0  0  0
M  END
