omegacsd_SEYMIS_07.xyz
 OpenBabel11041815263D

 45 47  0  0  0  0  0  0  0  0999 V2000
   -4.6842   -2.3816   -0.1406 O   0  0  0  0  0  0  0  0  0  0  0  0
   -5.0694   -1.0910   -0.4287 N   0  0  0  0  0  0  0  0  0  0  0  0
   -3.9848   -0.3355   -0.2881 C   0  0  0  0  0  0  0  0  0  0  0  0
   -2.8662   -1.1357    0.0868 C   0  0  0  0  0  0  0  0  0  0  0  0
   -1.4582   -0.7476    0.3604 C   0  0  0  0  0  0  0  0  0  0  0  0
   -1.1264    0.0192    1.2549 O   0  0  0  0  0  0  0  0  0  0  0  0
   -0.5747   -1.3681   -0.4777 N   0  0  0  0  0  0  0  0  0  0  0  0
    0.8158   -1.2298   -0.4440 C   0  0  0  0  0  0  0  0  0  0  0  0
    1.6707   -1.8599   -1.3499 C   0  0  0  0  0  0  0  0  0  0  0  0
    2.9511   -1.5196   -1.0337 N   0  0  0  0  0  0  0  0  0  0  0  0
    4.1165   -1.9910   -1.7657 C   0  0  0  0  0  0  0  0  0  0  0  0
    2.9340   -0.6874    0.0571 C   0  0  0  0  0  0  0  0  0  0  0  0
    1.6067   -0.4887    0.4470 C   0  0  0  0  0  0  0  0  0  0  0  0
    4.1571   -0.1508    0.6361 C   0  0  0  0  0  0  0  0  0  0  0  0
    5.2864   -0.3749    0.2327 O   0  0  0  0  0  0  0  0  0  0  0  0
    3.8759    0.6338    1.6950 O   0  0  0  0  0  0  0  0  0  0  0  0
    5.0230    1.2379    2.3255 C   0  0  0  0  0  0  0  0  0  0  0  0
    5.4487    2.4886    1.5899 C   0  0  0  0  0  0  0  0  0  0  0  0
   -3.3689   -2.4063    0.1611 C   0  0  0  0  0  0  0  0  0  0  0  0
   -2.7867   -3.7208    0.5248 C   0  0  0  0  0  0  0  0  0  0  0  0
   -4.0728    1.0998   -0.5721 C   0  0  0  0  0  0  0  0  0  0  0  0
   -3.2804    2.0227    0.1204 C   0  0  0  0  0  0  0  0  0  0  0  0
   -3.3931    3.3812   -0.1637 C   0  0  0  0  0  0  0  0  0  0  0  0
   -4.2915    3.8303   -1.1294 C   0  0  0  0  0  0  0  0  0  0  0  0
   -5.0838    2.9109   -1.8158 C   0  0  0  0  0  0  0  0  0  0  0  0
   -4.9752    1.5517   -1.5432 C   0  0  0  0  0  0  0  0  0  0  0  0
   -0.9730   -1.9025   -1.2324 H   0  0  0  0  0  0  0  0  0  0  0  0
    1.4596   -2.5095   -2.1827 H   0  0  0  0  0  0  0  0  0  0  0  0
    3.7604   -2.6176   -2.5784 H   0  0  0  0  0  0  0  0  0  0  0  0
    4.6787   -1.1516   -2.1615 H   0  0  0  0  0  0  0  0  0  0  0  0
    4.7680   -2.5630   -1.1127 H   0  0  0  0  0  0  0  0  0  0  0  0
    1.2724    0.1182    1.2655 H   0  0  0  0  0  0  0  0  0  0  0  0
    4.6853    1.4638    3.3328 H   0  0  0  0  0  0  0  0  0  0  0  0
    5.8291    0.5091    2.3656 H   0  0  0  0  0  0  0  0  0  0  0  0
    6.2673    2.9698    2.1235 H   0  0  0  0  0  0  0  0  0  0  0  0
    5.7887    2.2426    0.5875 H   0  0  0  0  0  0  0  0  0  0  0  0
    4.6202    3.1904    1.5239 H   0  0  0  0  0  0  0  0  0  0  0  0
   -2.8331   -4.4160   -0.3127 H   0  0  0  0  0  0  0  0  0  0  0  0
   -3.3342   -4.1607    1.3568 H   0  0  0  0  0  0  0  0  0  0  0  0
   -1.7481   -3.5934    0.8190 H   0  0  0  0  0  0  0  0  0  0  0  0
   -2.5944    1.6741    0.8788 H   0  0  0  0  0  0  0  0  0  0  0  0
   -2.7800    4.0897    0.3764 H   0  0  0  0  0  0  0  0  0  0  0  0
   -4.3740    4.8866   -1.3460 H   0  0  0  0  0  0  0  0  0  0  0  0
   -5.7818    3.2519   -2.5682 H   0  0  0  0  0  0  0  0  0  0  0  0
   -5.5804    0.8306   -2.0748 H   0  0  0  0  0  0  0  0  0  0  0  0
  1 19  1  0  0  0  0
  2  3  2  0  0  0  0
  2  1  1  0  0  0  0
  3  4  1  0  0  0  0
  4 19  2  0  0  0  0
  4  5  1  0  0  0  0
  5  6  2  0  0  0  0
  7  8  1  0  0  0  0
  7  5  1  0  0  0  0
  8 13  1  0  0  0  0
  9 10  1  0  0  0  0
  9  8  2  0  0  0  0
 10 12  1  0  0  0  0
 11 31  1  0  0  0  0
 11 10  1  0  0  0  0
 12 13  2  0  0  0  0
 12 14  1  0  0  0  0
 13 32  1  0  0  0  0
 14 16  1  0  0  0  0
 15 14  2  0  0  0  0
 16 17  1  0  0  0  0
 17 34  1  0  0  0  0
 17 33  1  0  0  0  0
 18 35  1  0  0  0  0
 18 17  1  0  0  0  0
 19 20  1  0  0  0  0
 20 40  1  0  0  0  0
 20 39  1  0  0  0  0
 21  3  1  0  0  0  0
 21 22  2  0  0  0  0
 22 41  1  0  0  0  0
 23 22  1  0  0  0  0
 23 42  1  0  0  0  0
 24 23  2  0  0  0  0
 25 26  2  0  0  0  0
 25 24  1  0  0  0  0
 26 21  1  0  0  0  0
 27  7  1  0  0  0  0
 28  9  1  0  0  0  0
 29 11  1  0  0  0  0
 30 11  1  0  0  0  0
 36 18  1  0  0  0  0
 37 18  1  0  0  0  0
 38 20  1  0  0  0  0
 43 24  1  0  0  0  0
 44 25  1  0  0  0  0
 45 26  1  0  0  0  0
M  END
