omegacsd_SEYMIS_09.xyz
 OpenBabel11041815263D

 45 47  0  0  0  0  0  0  0  0999 V2000
   -2.0600   -3.0077    1.5761 O   0  0  0  0  0  0  0  0  0  0  0  0
   -1.7489   -2.5479    0.3118 N   0  0  0  0  0  0  0  0  0  0  0  0
   -1.9504   -1.2370    0.3421 C   0  0  0  0  0  0  0  0  0  0  0  0
   -2.4091   -0.8212    1.6235 C   0  0  0  0  0  0  0  0  0  0  0  0
   -2.7316    0.5169    2.1683 C   0  0  0  0  0  0  0  0  0  0  0  0
   -3.6947    0.7057    2.9033 O   0  0  0  0  0  0  0  0  0  0  0  0
   -1.8876    1.5370    1.8176 N   0  0  0  0  0  0  0  0  0  0  0  0
   -0.6403    1.4141    1.1867 C   0  0  0  0  0  0  0  0  0  0  0  0
   -0.2117    2.2072    0.1248 C   0  0  0  0  0  0  0  0  0  0  0  0
    1.0213    1.7794   -0.2627 N   0  0  0  0  0  0  0  0  0  0  0  0
    1.7614    2.4027   -1.3477 C   0  0  0  0  0  0  0  0  0  0  0  0
    1.3892    0.7124    0.5232 C   0  0  0  0  0  0  0  0  0  0  0  0
    0.3728    0.4833    1.4521 C   0  0  0  0  0  0  0  0  0  0  0  0
    2.5945   -0.0988    0.3992 C   0  0  0  0  0  0  0  0  0  0  0  0
    2.8668   -1.0133    1.1504 O   0  0  0  0  0  0  0  0  0  0  0  0
    3.3653    0.2647   -0.6560 O   0  0  0  0  0  0  0  0  0  0  0  0
    4.5350   -0.5584   -0.8541 C   0  0  0  0  0  0  0  0  0  0  0  0
    4.1801   -1.8256   -1.5988 C   0  0  0  0  0  0  0  0  0  0  0  0
   -2.4664   -1.9795    2.3493 C   0  0  0  0  0  0  0  0  0  0  0  0
   -2.8435   -2.2868    3.7471 C   0  0  0  0  0  0  0  0  0  0  0  0
   -1.7314   -0.4437   -0.8674 C   0  0  0  0  0  0  0  0  0  0  0  0
   -0.5983   -0.6678   -1.6568 C   0  0  0  0  0  0  0  0  0  0  0  0
   -0.3917    0.0913   -2.8056 C   0  0  0  0  0  0  0  0  0  0  0  0
   -1.3080    1.0779   -3.1712 C   0  0  0  0  0  0  0  0  0  0  0  0
   -2.4472    1.2899   -2.3935 C   0  0  0  0  0  0  0  0  0  0  0  0
   -2.6609    0.5317   -1.2465 C   0  0  0  0  0  0  0  0  0  0  0  0
   -2.1645    2.4341    2.1894 H   0  0  0  0  0  0  0  0  0  0  0  0
   -0.7040    3.0176   -0.3849 H   0  0  0  0  0  0  0  0  0  0  0  0
    1.9180    1.6941   -2.1542 H   0  0  0  0  0  0  0  0  0  0  0  0
    2.7243    2.7595   -0.9945 H   0  0  0  0  0  0  0  0  0  0  0  0
    1.1673    3.2379   -1.7071 H   0  0  0  0  0  0  0  0  0  0  0  0
    0.3898   -0.2955    2.1947 H   0  0  0  0  0  0  0  0  0  0  0  0
    4.9772   -0.7794    0.1141 H   0  0  0  0  0  0  0  0  0  0  0  0
    5.2105    0.0683   -1.4300 H   0  0  0  0  0  0  0  0  0  0  0  0
    5.0820   -2.4046   -1.7935 H   0  0  0  0  0  0  0  0  0  0  0  0
    3.7117   -1.5897   -2.5524 H   0  0  0  0  0  0  0  0  0  0  0  0
    3.5014   -2.4350   -1.0080 H   0  0  0  0  0  0  0  0  0  0  0  0
   -2.0053   -2.7252    4.2866 H   0  0  0  0  0  0  0  0  0  0  0  0
   -3.6696   -2.9959    3.7685 H   0  0  0  0  0  0  0  0  0  0  0  0
   -3.1604   -1.3703    4.2357 H   0  0  0  0  0  0  0  0  0  0  0  0
    0.1043   -1.4354   -1.3607 H   0  0  0  0  0  0  0  0  0  0  0  0
    0.4802   -0.0923   -3.4200 H   0  0  0  0  0  0  0  0  0  0  0  0
   -1.1459    1.6642   -4.0658 H   0  0  0  0  0  0  0  0  0  0  0  0
   -3.1714    2.0384   -2.6861 H   0  0  0  0  0  0  0  0  0  0  0  0
   -3.5503    0.6826   -0.6478 H   0  0  0  0  0  0  0  0  0  0  0  0
  1 19  1  0  0  0  0
  2  3  2  0  0  0  0
  2  1  1  0  0  0  0
  3  4  1  0  0  0  0
  4  5  1  0  0  0  0
  4 19  2  0  0  0  0
  5  6  2  0  0  0  0
  7  5  1  0  0  0  0
  7 27  1  0  0  0  0
  8 13  1  0  0  0  0
  8  7  1  0  0  0  0
  9  8  2  0  0  0  0
 10  9  1  0  0  0  0
 10 12  1  0  0  0  0
 11 30  1  0  0  0  0
 11 10  1  0  0  0  0
 12 13  2  0  0  0  0
 13 32  1  0  0  0  0
 14 12  1  0  0  0  0
 14 15  2  0  0  0  0
 16 14  1  0  0  0  0
 17 16  1  0  0  0  0
 17 33  1  0  0  0  0
 18 37  1  0  0  0  0
 18 17  1  0  0  0  0
 19 20  1  0  0  0  0
 20 39  1  0  0  0  0
 20 40  1  0  0  0  0
 20 38  1  0  0  0  0
 21  3  1  0  0  0  0
 22 41  1  0  0  0  0
 22 21  2  0  0  0  0
 23 22  1  0  0  0  0
 24 23  2  0  0  0  0
 24 25  1  0  0  0  0
 25 26  2  0  0  0  0
 26 21  1  0  0  0  0
 26 45  1  0  0  0  0
 28  9  1  0  0  0  0
 29 11  1  0  0  0  0
 31 11  1  0  0  0  0
 34 17  1  0  0  0  0
 35 18  1  0  0  0  0
 36 18  1  0  0  0  0
 42 23  1  0  0  0  0
 43 24  1  0  0  0  0
 44 25  1  0  0  0  0
M  END
