omegacsd_SPIRIL_09.xyz
 OpenBabel11041815263D

 57 60  0  0  1  0  0  0  0  0999 V2000
   -0.4607    0.6934    0.0151 C   0  0  0  0  0  0  0  0  0  0  0  0
   -1.3208   -0.4836   -0.4965 C   0  0  2  0  0  0  0  0  0  0  0  0
   -0.5163   -1.3883   -1.4304 C   0  0  0  0  0  0  0  0  0  0  0  0
    0.5791   -1.8745   -1.2060 O   0  0  0  0  0  0  0  0  0  0  0  0
   -1.2639   -1.5799   -2.5463 N   0  0  0  0  0  0  0  0  0  0  0  0
   -2.5562   -0.9546   -2.5032 C   0  0  0  0  0  0  0  0  0  0  0  0
   -2.4155   -0.0507   -1.3772 N   0  0  0  0  0  0  0  0  0  0  0  0
   -3.5591    0.6008   -0.9303 C   0  0  0  0  0  0  0  0  0  0  0  0
   -3.5821    1.3351    0.2696 C   0  0  0  0  0  0  0  0  0  0  0  0
   -4.7272    2.0162    0.6673 C   0  0  0  0  0  0  0  0  0  0  0  0
   -5.8829    1.9933   -0.1099 C   0  0  0  0  0  0  0  0  0  0  0  0
   -5.8724    1.2718   -1.2991 C   0  0  0  0  0  0  0  0  0  0  0  0
   -4.7339    0.5810   -1.7047 C   0  0  0  0  0  0  0  0  0  0  0  0
   -1.8235   -1.3542    0.6688 C   0  0  0  0  0  0  0  0  0  0  0  0
   -0.7197   -1.7569    1.6503 C   0  0  0  0  0  0  0  0  0  0  0  0
    0.2957   -0.7190    1.7879 N   0  0  0  0  0  0  0  0  0  0  0  0
    1.0156   -0.8598    3.0344 C   0  0  0  0  0  0  0  0  0  0  0  0
    2.2432    0.0721    3.1518 C   0  0  0  0  0  0  0  0  0  0  0  0
    2.8573    0.5034    1.8476 C   0  0  0  0  0  0  0  0  0  0  0  0
    3.2770   -0.3055    0.8566 C   0  0  0  0  0  0  0  0  0  0  0  0
    3.7727    0.2769   -0.4050 C   0  0  0  0  0  0  0  0  0  0  0  0
    3.4347   -0.3129   -1.6321 C   0  0  0  0  0  0  0  0  0  0  0  0
    3.8587    0.2436   -2.8358 C   0  0  0  0  0  0  0  0  0  0  0  0
    4.6367    1.3904   -2.8070 C   0  0  0  0  0  0  0  0  0  0  0  0
    5.0058    1.9930   -1.6145 C   0  0  0  0  0  0  0  0  0  0  0  0
    4.5724    1.4281   -0.4185 C   0  0  0  0  0  0  0  0  0  0  0  0
    5.0553    1.9287   -3.9693 F   0  0  0  0  0  0  0  0  0  0  0  0
    3.2042   -1.8021    0.9412 C   0  0  0  0  0  0  0  0  0  0  0  0
   -0.2237    0.6056    1.5175 C   0  0  0  0  0  0  0  0  0  0  0  0
    0.5197    0.6432   -0.4611 H   0  0  0  0  0  0  0  0  0  0  0  0
   -0.9286    1.6345   -0.2717 H   0  0  0  0  0  0  0  0  0  0  0  0
   -0.9830   -2.2357   -3.2558 H   0  0  0  0  0  0  0  0  0  0  0  0
   -2.7639   -0.4011   -3.4217 H   0  0  0  0  0  0  0  0  0  0  0  0
   -3.3600   -1.6898   -2.3491 H   0  0  0  0  0  0  0  0  0  0  0  0
   -2.7055    1.3874    0.8938 H   0  0  0  0  0  0  0  0  0  0  0  0
   -4.7078    2.5700    1.5965 H   0  0  0  0  0  0  0  0  0  0  0  0
   -6.7690    2.5258    0.2040 H   0  0  0  0  0  0  0  0  0  0  0  0
   -6.7561    1.2357   -1.9220 H   0  0  0  0  0  0  0  0  0  0  0  0
   -4.7682    0.0336   -2.6349 H   0  0  0  0  0  0  0  0  0  0  0  0
   -2.3085   -2.2493    0.2721 H   0  0  0  0  0  0  0  0  0  0  0  0
   -2.5947   -0.7906    1.1924 H   0  0  0  0  0  0  0  0  0  0  0  0
   -1.1992   -1.9724    2.6191 H   0  0  0  0  0  0  0  0  0  0  0  0
   -0.2260   -2.6724    1.3184 H   0  0  0  0  0  0  0  0  0  0  0  0
    0.3608   -0.6916    3.9076 H   0  0  0  0  0  0  0  0  0  0  0  0
    1.3348   -1.9018    3.0878 H   0  0  0  0  0  0  0  0  0  0  0  0
    2.9821   -0.4388    3.7759 H   0  0  0  0  0  0  0  0  0  0  0  0
    1.9588    0.9677    3.7034 H   0  0  0  0  0  0  0  0  0  0  0  0
    2.9107    1.5725    1.6708 H   0  0  0  0  0  0  0  0  0  0  0  0
    2.8057   -1.1923   -1.6464 H   0  0  0  0  0  0  0  0  0  0  0  0
    3.5929   -0.1971   -3.7861 H   0  0  0  0  0  0  0  0  0  0  0  0
    5.6313    2.8739   -1.6315 H   0  0  0  0  0  0  0  0  0  0  0  0
    4.8779    1.8704    0.5204 H   0  0  0  0  0  0  0  0  0  0  0  0
    3.2135   -2.1381    1.9767 H   0  0  0  0  0  0  0  0  0  0  0  0
    4.0506   -2.2571    0.4273 H   0  0  0  0  0  0  0  0  0  0  0  0
    2.2846   -2.1560    0.4718 H   0  0  0  0  0  0  0  0  0  0  0  0
    0.5267    1.3430    1.7979 H   0  0  0  0  0  0  0  0  0  0  0  0
   -1.1304    0.8354    2.1048 H   0  0  0  0  0  0  0  0  0  0  0  0
  1 29  1  0  0  0  0
  2  3  1  6  0  0  0
  2  1  1  0  0  0  0
  2 14  1  0  0  0  0
  3  4  2  0  0  0  0
  5  6  1  0  0  0  0
  5  3  1  0  0  0  0
  6 34  1  0  0  0  0
  6  7  1  0  0  0  0
  7  8  1  0  0  0  0
  7  2  1  0  0  0  0
  8  9  2  0  0  0  0
  9 10  1  0  0  0  0
  9 35  1  0  0  0  0
 10 36  1  0  0  0  0
 11 37  1  0  0  0  0
 11 10  2  0  0  0  0
 12 11  1  0  0  0  0
 13 12  2  0  0  0  0
 13  8  1  0  0  0  0
 14 41  1  0  0  0  0
 14 15  1  0  0  0  0
 15 16  1  0  0  0  0
 15 42  1  0  0  0  0
 16 17  1  0  0  0  0
 17 45  1  0  0  0  0
 17 18  1  0  0  0  0
 17 44  1  0  0  0  0
 18 47  1  0  0  0  0
 18 46  1  0  0  0  0
 19 18  1  0  0  0  0
 20 28  1  0  0  0  0
 20 19  2  0  0  0  0
 21 20  1  0  0  0  0
 22 21  2  0  0  0  0
 23 24  2  0  0  0  0
 23 22  1  0  0  0  0
 24 25  1  0  0  0  0
 25 26  2  0  0  0  0
 26 21  1  0  0  0  0
 26 52  1  0  0  0  0
 27 24  1  0  0  0  0
 28 53  1  0  0  0  0
 29 16  1  0  0  0  0
 29 56  1  0  0  0  0
 29 57  1  0  0  0  0
 30  1  1  0  0  0  0
 31  1  1  0  0  0  0
 32  5  1  0  0  0  0
 33  6  1  0  0  0  0
 38 12  1  0  0  0  0
 39 13  1  0  0  0  0
 40 14  1  0  0  0  0
 43 15  1  0  0  0  0
 48 19  1  0  0  0  0
 49 22  1  0  0  0  0
 50 23  1  0  0  0  0
 51 25  1  0  0  0  0
 54 28  1  0  0  0  0
 55 28  1  0  0  0  0
M  END
