omegapdb_2f7p_19.xyz
 OpenBabel11041815263D

 34 35  0  0  1  0  0  0  0  0999 V2000
   -1.1812   -0.8704   -0.3020 C   0  0  1  0  0  0  0  0  0  0  0  0
    0.2618   -0.7407   -0.3278 N   0  0  0  0  0  0  0  0  0  0  0  0
    0.8290    0.5498    0.0648 C   0  0  0  0  0  0  0  0  0  0  0  0
    2.3276    0.4852   -0.0340 C   0  0  0  0  0  0  0  0  0  0  0  0
    3.0329   -0.5037    0.6588 C   0  0  0  0  0  0  0  0  0  0  0  0
    4.4203   -0.5698    0.5753 C   0  0  0  0  0  0  0  0  0  0  0  0
    5.1204    0.3507   -0.2051 C   0  0  0  0  0  0  0  0  0  0  0  0
    4.4256    1.3356   -0.9023 C   0  0  0  0  0  0  0  0  0  0  0  0
    3.0352    1.3981   -0.8169 C   0  0  0  0  0  0  0  0  0  0  0  0
   -1.8043   -1.1215    1.0709 C   0  0  1  0  0  0  0  0  0  0  0  0
   -1.5297   -0.1291    2.0586 O   0  0  0  0  0  0  0  0  0  0  0  0
   -3.2919   -1.0935    0.7252 C   0  0  1  0  0  0  0  0  0  0  0  0
   -4.1332   -0.9920    1.8573 O   0  0  0  0  0  0  0  0  0  0  0  0
   -3.4110    0.1502   -0.1900 C   0  0  1  0  0  0  0  0  0  0  0  0
   -3.5827    1.3099    0.6233 O   0  0  0  0  0  0  0  0  0  0  0  0
   -2.0402    0.2782   -0.8754 C   0  0  2  0  0  0  0  0  0  0  0  0
   -2.1965    0.2479   -2.6853 S   0  0  0  0  0  0  0  0  0  0  0  0
   -1.4143   -1.7648   -0.8870 H   0  0  0  0  0  0  0  0  0  0  0  0
    0.6122   -0.9888   -1.2462 H   0  0  0  0  0  0  0  0  0  0  0  0
    0.5258    0.7428    1.0930 H   0  0  0  0  0  0  0  0  0  0  0  0
    0.4760    1.3898   -0.5481 H   0  0  0  0  0  0  0  0  0  0  0  0
    2.4818   -1.2203    1.2530 H   0  0  0  0  0  0  0  0  0  0  0  0
    4.9565   -1.3363    1.1183 H   0  0  0  0  0  0  0  0  0  0  0  0
    6.1985    0.2985   -0.2697 H   0  0  0  0  0  0  0  0  0  0  0  0
    4.9618    2.0497   -1.5123 H   0  0  0  0  0  0  0  0  0  0  0  0
    2.4941    2.1636   -1.3597 H   0  0  0  0  0  0  0  0  0  0  0  0
   -1.4709   -2.0663    1.4943 H   0  0  0  0  0  0  0  0  0  0  0  0
   -1.9458    0.6922    1.7501 H   0  0  0  0  0  0  0  0  0  0  0  0
   -3.5653   -1.9896    0.1675 H   0  0  0  0  0  0  0  0  0  0  0  0
   -3.5490   -0.7167    2.5784 H   0  0  0  0  0  0  0  0  0  0  0  0
   -4.2356    0.0618   -0.9003 H   0  0  0  0  0  0  0  0  0  0  0  0
   -4.2886    1.0729    1.2432 H   0  0  0  0  0  0  0  0  0  0  0  0
   -1.6391    1.2465   -0.5819 H   0  0  0  0  0  0  0  0  0  0  0  0
   -0.8806    0.2801   -2.9322 H   0  0  0  0  0  0  0  0  0  0  0  0
  1 18  1  6  0  0  0
  1 10  1  0  0  0  0
  2  1  1  0  0  0  0
  2  3  1  0  0  0  0
  3 20  1  0  0  0  0
  4  3  1  0  0  0  0
  4  5  2  0  0  0  0
  5 22  1  0  0  0  0
  6  5  1  0  0  0  0
  6 23  1  0  0  0  0
  7  6  2  0  0  0  0
  8  9  2  0  0  0  0
  8  7  1  0  0  0  0
  9  4  1  0  0  0  0
 10 27  1  1  0  0  0
 10 11  1  0  0  0  0
 12 29  1  6  0  0  0
 12 10  1  0  0  0  0
 12 13  1  0  0  0  0
 13 30  1  0  0  0  0
 14 31  1  6  0  0  0
 14 15  1  0  0  0  0
 14 12  1  0  0  0  0
 15 32  1  0  0  0  0
 16 33  1  1  0  0  0
 16  1  1  0  0  0  0
 16 14  1  0  0  0  0
 17 16  1  0  0  0  0
 19  2  1  0  0  0  0
 21  3  1  0  0  0  0
 24  7  1  0  0  0  0
 25  8  1  0  0  0  0
 26  9  1  0  0  0  0
 28 11  1  0  0  0  0
 34 17  1  0  0  0  0
M  END
