omegacsd_GALSEM_12.xyz
 OpenBabel11041815263D

 39 40  0  0  0  0  0  0  0  0999 V2000
    0.9917   -1.2714    2.8406 S   0  0  0  0  0  0  0  0  0  0  0  0
    1.6470   -2.1131    3.8146 O   0  0  0  0  0  0  0  0  0  0  0  0
   -0.2623   -0.6135    3.1337 O   0  0  0  0  0  0  0  0  0  0  0  0
    2.1504   -0.0828    2.5375 N   0  0  0  0  0  0  0  0  0  0  0  0
    1.9994    0.9331    1.6110 C   0  0  0  0  0  0  0  0  0  0  0  0
    0.9953    1.0243    0.9261 O   0  0  0  0  0  0  0  0  0  0  0  0
    3.1689    1.8857    1.5376 C   0  0  0  0  0  0  0  0  0  0  0  0
    2.9879    2.9203    0.4410 C   0  0  0  0  0  0  0  0  0  0  0  0
    0.8587   -2.1182    1.3059 C   0  0  0  0  0  0  0  0  0  0  0  0
   -0.1315   -1.8424    0.3368 C   0  0  0  0  0  0  0  0  0  0  0  0
   -1.1460   -0.9526    0.5422 N   0  0  0  0  0  0  0  0  0  0  0  0
   -1.9473   -0.4467   -0.5016 C   0  0  0  0  0  0  0  0  0  0  0  0
   -1.8508    0.9049   -0.8361 C   0  0  0  0  0  0  0  0  0  0  0  0
   -2.6781    1.4240   -1.8274 C   0  0  0  0  0  0  0  0  0  0  0  0
   -3.5789    0.6086   -2.5096 C   0  0  0  0  0  0  0  0  0  0  0  0
   -3.6657   -0.7394   -2.1720 C   0  0  0  0  0  0  0  0  0  0  0  0
   -2.8634   -1.2674   -1.1645 C   0  0  0  0  0  0  0  0  0  0  0  0
   -2.5367    2.8645   -2.2186 C   0  0  0  0  0  0  0  0  0  0  0  0
   -2.1453    3.6278   -1.1893 F   0  0  0  0  0  0  0  0  0  0  0  0
   -1.6215    3.0177   -3.1920 F   0  0  0  0  0  0  0  0  0  0  0  0
   -3.6882    3.3718   -2.6822 F   0  0  0  0  0  0  0  0  0  0  0  0
    0.0066   -2.5695   -0.8597 C   0  0  0  0  0  0  0  0  0  0  0  0
    1.0258   -3.4917   -1.0059 C   0  0  0  0  0  0  0  0  0  0  0  0
    1.9422   -3.7821   -0.0652 N   0  0  0  0  0  0  0  0  0  0  0  0
    1.8391   -3.0848    1.0635 C   0  0  0  0  0  0  0  0  0  0  0  0
    3.0147   -0.2115    3.0441 H   0  0  0  0  0  0  0  0  0  0  0  0
    3.2714    2.3605    2.5156 H   0  0  0  0  0  0  0  0  0  0  0  0
    4.0767    1.2990    1.3828 H   0  0  0  0  0  0  0  0  0  0  0  0
    2.0872    3.5045    0.6094 H   0  0  0  0  0  0  0  0  0  0  0  0
    2.8929    2.4403   -0.5296 H   0  0  0  0  0  0  0  0  0  0  0  0
    3.8405    3.5947    0.4136 H   0  0  0  0  0  0  0  0  0  0  0  0
   -1.0034   -0.3346    1.3309 H   0  0  0  0  0  0  0  0  0  0  0  0
   -1.1303    1.5278   -0.3247 H   0  0  0  0  0  0  0  0  0  0  0  0
   -4.2121    1.0259   -3.2783 H   0  0  0  0  0  0  0  0  0  0  0  0
   -4.3757   -1.3766   -2.6801 H   0  0  0  0  0  0  0  0  0  0  0  0
   -2.9593   -2.3026   -0.8664 H   0  0  0  0  0  0  0  0  0  0  0  0
   -0.6785   -2.4019   -1.6767 H   0  0  0  0  0  0  0  0  0  0  0  0
    1.1154   -4.0366   -1.9374 H   0  0  0  0  0  0  0  0  0  0  0  0
    2.5634   -3.2957    1.8399 H   0  0  0  0  0  0  0  0  0  0  0  0
  1  3  2  0  0  0  0
  1  2  2  0  0  0  0
  4  1  1  0  0  0  0
  4 26  1  0  0  0  0
  5  4  1  0  0  0  0
  6  5  2  0  0  0  0
  7  5  1  0  0  0  0
  7 27  1  0  0  0  0
  8 29  1  0  0  0  0
  8  7  1  0  0  0  0
  9  1  1  0  0  0  0
 10 11  1  0  0  0  0
 10  9  2  0  0  0  0
 11 32  1  0  0  0  0
 12 11  1  0  0  0  0
 13 12  1  0  0  0  0
 13 33  1  0  0  0  0
 14 13  2  0  0  0  0
 15 16  2  0  0  0  0
 15 14  1  0  0  0  0
 16 17  1  0  0  0  0
 17 36  1  0  0  0  0
 17 12  2  0  0  0  0
 18 14  1  0  0  0  0
 18 19  1  0  0  0  0
 20 18  1  0  0  0  0
 21 18  1  0  0  0  0
 22 10  1  0  0  0  0
 23 22  2  0  0  0  0
 23 24  1  0  0  0  0
 24 25  2  0  0  0  0
 25  9  1  0  0  0  0
 25 39  1  0  0  0  0
 28  7  1  0  0  0  0
 30  8  1  0  0  0  0
 31  8  1  0  0  0  0
 34 15  1  0  0  0  0
 35 16  1  0  0  0  0
 37 22  1  0  0  0  0
 38 23  1  0  0  0  0
M  END
