omegapdb_2f7p_13.xyz
 OpenBabel11041815263D

 34 35  0  0  1  0  0  0  0  0999 V2000
   -1.1329   -0.6942   -0.3340 C   0  0  1  0  0  0  0  0  0  0  0  0
    0.1921   -0.1244   -0.4430 N   0  0  0  0  0  0  0  0  0  0  0  0
    1.1871   -0.8646    0.3339 C   0  0  0  0  0  0  0  0  0  0  0  0
    2.5426   -0.2336    0.1791 C   0  0  0  0  0  0  0  0  0  0  0  0
    3.0452    0.0409   -1.0965 C   0  0  0  0  0  0  0  0  0  0  0  0
    4.3027    0.6172   -1.2491 C   0  0  0  0  0  0  0  0  0  0  0  0
    5.0725    0.9274   -0.1279 C   0  0  0  0  0  0  0  0  0  0  0  0
    4.5764    0.6621    1.1459 C   0  0  0  0  0  0  0  0  0  0  0  0
    3.3154    0.0867    1.2957 C   0  0  0  0  0  0  0  0  0  0  0  0
   -1.7953   -0.6616    1.0608 C   0  0  1  0  0  0  0  0  0  0  0  0
   -1.4730    0.5084    1.8056 O   0  0  0  0  0  0  0  0  0  0  0  0
   -3.2877   -0.6877    0.7323 C   0  0  1  0  0  0  0  0  0  0  0  0
   -4.1081   -0.3009    1.8192 O   0  0  0  0  0  0  0  0  0  0  0  0
   -3.3966    0.2864   -0.4470 C   0  0  1  0  0  0  0  0  0  0  0  0
   -3.3109    1.6304    0.0451 O   0  0  0  0  0  0  0  0  0  0  0  0
   -2.1373    0.0247   -1.2730 C   0  0  2  0  0  0  0  0  0  0  0  0
   -2.4217   -1.0578   -2.7042 S   0  0  0  0  0  0  0  0  0  0  0  0
   -1.0575   -1.7459   -0.6295 H   0  0  0  0  0  0  0  0  0  0  0  0
    0.1664    0.8274   -0.0870 H   0  0  0  0  0  0  0  0  0  0  0  0
    0.9395   -0.9269    1.4004 H   0  0  0  0  0  0  0  0  0  0  0  0
    1.2030   -1.8857   -0.0581 H   0  0  0  0  0  0  0  0  0  0  0  0
    2.4352   -0.1901   -1.9595 H   0  0  0  0  0  0  0  0  0  0  0  0
    4.6834    0.8242   -2.2401 H   0  0  0  0  0  0  0  0  0  0  0  0
    6.0493    1.3758   -0.2472 H   0  0  0  0  0  0  0  0  0  0  0  0
    5.1652    0.9067    2.0196 H   0  0  0  0  0  0  0  0  0  0  0  0
    2.9254   -0.1133    2.2860 H   0  0  0  0  0  0  0  0  0  0  0  0
   -1.4923   -1.5014    1.6829 H   0  0  0  0  0  0  0  0  0  0  0  0
   -1.8480    1.2499    1.3009 H   0  0  0  0  0  0  0  0  0  0  0  0
   -3.5789   -1.6865    0.4025 H   0  0  0  0  0  0  0  0  0  0  0  0
   -3.5031    0.1061    2.4550 H   0  0  0  0  0  0  0  0  0  0  0  0
   -4.3139    0.1573   -1.0214 H   0  0  0  0  0  0  0  0  0  0  0  0
   -4.0125    1.6950    0.7091 H   0  0  0  0  0  0  0  0  0  0  0  0
   -1.7187    0.9701   -1.6137 H   0  0  0  0  0  0  0  0  0  0  0  0
   -3.2130   -0.2221   -3.3874 H   0  0  0  0  0  0  0  0  0  0  0  0
  1 18  1  6  0  0  0
  1 10  1  0  0  0  0
  2  1  1  0  0  0  0
  2 19  1  0  0  0  0
  2  3  1  0  0  0  0
  3 20  1  0  0  0  0
  4  3  1  0  0  0  0
  4  9  2  0  0  0  0
  5  4  1  0  0  0  0
  6  5  2  0  0  0  0
  6  7  1  0  0  0  0
  7  8  2  0  0  0  0
  8  9  1  0  0  0  0
  8 25  1  0  0  0  0
  9 26  1  0  0  0  0
 10 27  1  1  0  0  0
 10 11  1  0  0  0  0
 12 29  1  6  0  0  0
 12 10  1  0  0  0  0
 12 13  1  0  0  0  0
 13 30  1  0  0  0  0
 14 31  1  6  0  0  0
 14 15  1  0  0  0  0
 14 12  1  0  0  0  0
 15 32  1  0  0  0  0
 16 33  1  6  0  0  0
 16 14  1  0  0  0  0
 16  1  1  0  0  0  0
 17 16  1  0  0  0  0
 21  3  1  0  0  0  0
 22  5  1  0  0  0  0
 23  6  1  0  0  0  0
 24  7  1  0  0  0  0
 28 11  1  0  0  0  0
 34 17  1  0  0  0  0
M  END
