omegacsd_GALSEM_13.xyz
 OpenBabel11041815263D

 39 40  0  0  0  0  0  0  0  0999 V2000
    2.3033   -1.2399    1.0034 S   0  0  0  0  0  0  0  0  0  0  0  0
    1.3398   -1.2275    2.0949 O   0  0  0  0  0  0  0  0  0  0  0  0
    3.5745   -1.8995    1.1908 O   0  0  0  0  0  0  0  0  0  0  0  0
    2.5183    0.3583    0.5349 N   0  0  0  0  0  0  0  0  0  0  0  0
    2.9795    1.4164    1.3571 C   0  0  0  0  0  0  0  0  0  0  0  0
    3.4648    2.3873    0.8171 O   0  0  0  0  0  0  0  0  0  0  0  0
    2.7934    1.2694    2.8421 C   0  0  0  0  0  0  0  0  0  0  0  0
    3.3035    2.4886    3.5896 C   0  0  0  0  0  0  0  0  0  0  0  0
    1.5361   -1.8347   -0.4595 C   0  0  0  0  0  0  0  0  0  0  0  0
    0.2000   -1.5041   -0.7717 C   0  0  0  0  0  0  0  0  0  0  0  0
   -0.5580   -0.7448    0.0777 N   0  0  0  0  0  0  0  0  0  0  0  0
   -1.8364   -0.2404   -0.1814 C   0  0  0  0  0  0  0  0  0  0  0  0
   -2.1569    0.3401   -1.4105 C   0  0  0  0  0  0  0  0  0  0  0  0
   -3.4364    0.8459   -1.6188 C   0  0  0  0  0  0  0  0  0  0  0  0
   -4.3945    0.8223   -0.6086 C   0  0  0  0  0  0  0  0  0  0  0  0
   -4.0586    0.2717    0.6257 C   0  0  0  0  0  0  0  0  0  0  0  0
   -2.7944   -0.2656    0.8385 C   0  0  0  0  0  0  0  0  0  0  0  0
   -3.7423    1.4923   -2.9371 C   0  0  0  0  0  0  0  0  0  0  0  0
   -5.0571    1.5252   -3.1874 F   0  0  0  0  0  0  0  0  0  0  0  0
   -3.2987    2.7595   -2.9760 F   0  0  0  0  0  0  0  0  0  0  0  0
   -3.1538    0.8417   -3.9538 F   0  0  0  0  0  0  0  0  0  0  0  0
   -0.2716   -2.0340   -1.9824 C   0  0  0  0  0  0  0  0  0  0  0  0
    0.5638   -2.8160   -2.7647 C   0  0  0  0  0  0  0  0  0  0  0  0
    1.8332   -3.1321   -2.4618 N   0  0  0  0  0  0  0  0  0  0  0  0
    2.2922   -2.6394   -1.3106 C   0  0  0  0  0  0  0  0  0  0  0  0
    2.8664    0.4468   -0.4150 H   0  0  0  0  0  0  0  0  0  0  0  0
    1.7367    1.0864    3.0356 H   0  0  0  0  0  0  0  0  0  0  0  0
    3.3087    0.3619    3.1623 H   0  0  0  0  0  0  0  0  0  0  0  0
    3.1584    2.3579    4.6594 H   0  0  0  0  0  0  0  0  0  0  0  0
    4.3620    2.6458    3.3992 H   0  0  0  0  0  0  0  0  0  0  0  0
    2.7763    3.3849    3.2734 H   0  0  0  0  0  0  0  0  0  0  0  0
   -0.2295   -0.7154    1.0364 H   0  0  0  0  0  0  0  0  0  0  0  0
   -1.4125    0.4136   -2.1899 H   0  0  0  0  0  0  0  0  0  0  0  0
   -5.3814    1.2211   -0.7872 H   0  0  0  0  0  0  0  0  0  0  0  0
   -4.7900    0.2454    1.4209 H   0  0  0  0  0  0  0  0  0  0  0  0
   -2.5421   -0.7162    1.7896 H   0  0  0  0  0  0  0  0  0  0  0  0
   -1.2889   -1.8626   -2.2994 H   0  0  0  0  0  0  0  0  0  0  0  0
    0.1838   -3.2250   -3.6926 H   0  0  0  0  0  0  0  0  0  0  0  0
    3.3082   -2.8850   -1.0307 H   0  0  0  0  0  0  0  0  0  0  0  0
  1  3  2  0  0  0  0
  1  2  2  0  0  0  0
  4  1  1  0  0  0  0
  4  5  1  0  0  0  0
  5  7  1  0  0  0  0
  6  5  2  0  0  0  0
  7 27  1  0  0  0  0
  7 28  1  0  0  0  0
  7  8  1  0  0  0  0
  8 29  1  0  0  0  0
  9  1  1  0  0  0  0
 10  9  1  0  0  0  0
 10 11  1  0  0  0  0
 11 32  1  0  0  0  0
 12 11  1  0  0  0  0
 12 17  2  0  0  0  0
 13 12  1  0  0  0  0
 14 13  2  0  0  0  0
 14 15  1  0  0  0  0
 15 16  2  0  0  0  0
 16 17  1  0  0  0  0
 16 35  1  0  0  0  0
 17 36  1  0  0  0  0
 18 14  1  0  0  0  0
 19 18  1  0  0  0  0
 20 18  1  0  0  0  0
 21 18  1  0  0  0  0
 22 10  2  0  0  0  0
 23 24  2  0  0  0  0
 23 22  1  0  0  0  0
 24 25  1  0  0  0  0
 25 39  1  0  0  0  0
 25  9  2  0  0  0  0
 26  4  1  0  0  0  0
 30  8  1  0  0  0  0
 31  8  1  0  0  0  0
 33 13  1  0  0  0  0
 34 15  1  0  0  0  0
 37 22  1  0  0  0  0
 38 23  1  0  0  0  0
M  END
