omegapdb_2f7p_11.xyz
 OpenBabel11041815263D

 34 35  0  0  1  0  0  0  0  0999 V2000
   -0.7233   -0.5975    0.3974 C   0  0  1  0  0  0  0  0  0  0  0  0
    0.0476   -0.3144    1.6063 N   0  0  0  0  0  0  0  0  0  0  0  0
    1.0442    0.7521    1.5193 C   0  0  0  0  0  0  0  0  0  0  0  0
    2.1317    0.5674    0.4838 C   0  0  0  0  0  0  0  0  0  0  0  0
    2.6056   -0.6987    0.1350 C   0  0  0  0  0  0  0  0  0  0  0  0
    3.6334   -0.8445   -0.7949 C   0  0  0  0  0  0  0  0  0  0  0  0
    4.2059    0.2805   -1.3837 C   0  0  0  0  0  0  0  0  0  0  0  0
    3.7449    1.5493   -1.0377 C   0  0  0  0  0  0  0  0  0  0  0  0
    2.7132    1.6879   -0.1135 C   0  0  0  0  0  0  0  0  0  0  0  0
   -1.8688   -1.5787    0.7935 C   0  0  1  0  0  0  0  0  0  0  0  0
   -2.2378   -1.3749    2.1490 O   0  0  0  0  0  0  0  0  0  0  0  0
   -3.0724   -1.2156   -0.1219 C   0  0  1  0  0  0  0  0  0  0  0  0
   -4.1347   -0.6611    0.6312 O   0  0  0  0  0  0  0  0  0  0  0  0
   -2.5295   -0.1250   -1.0510 C   0  0  1  0  0  0  0  0  0  0  0  0
   -3.5339    0.7180   -1.5527 O   0  0  0  0  0  0  0  0  0  0  0  0
   -1.4837    0.5877   -0.1871 C   0  0  2  0  0  0  0  0  0  0  0  0
   -0.5044    1.7448   -1.1909 S   0  0  0  0  0  0  0  0  0  0  0  0
   -0.1212   -1.0450   -0.4021 H   0  0  0  0  0  0  0  0  0  0  0  0
    0.5130   -1.1712    1.8931 H   0  0  0  0  0  0  0  0  0  0  0  0
    1.4982    0.8370    2.5090 H   0  0  0  0  0  0  0  0  0  0  0  0
    0.5258    1.6918    1.3305 H   0  0  0  0  0  0  0  0  0  0  0  0
    2.1757   -1.5852    0.5858 H   0  0  0  0  0  0  0  0  0  0  0  0
    3.9845   -1.8330   -1.0578 H   0  0  0  0  0  0  0  0  0  0  0  0
    5.0006    0.1691   -2.1084 H   0  0  0  0  0  0  0  0  0  0  0  0
    4.1798    2.4277   -1.4945 H   0  0  0  0  0  0  0  0  0  0  0  0
    2.3435    2.6737    0.1393 H   0  0  0  0  0  0  0  0  0  0  0  0
   -1.5619   -2.6167    0.6583 H   0  0  0  0  0  0  0  0  0  0  0  0
   -1.5347   -0.7805    2.4864 H   0  0  0  0  0  0  0  0  0  0  0  0
   -3.4429   -2.0761   -0.6784 H   0  0  0  0  0  0  0  0  0  0  0  0
   -3.8221   -0.7143    1.5521 H   0  0  0  0  0  0  0  0  0  0  0  0
   -2.0157   -0.5697   -1.9062 H   0  0  0  0  0  0  0  0  0  0  0  0
   -4.1793    0.7713   -0.8313 H   0  0  0  0  0  0  0  0  0  0  0  0
   -1.9906    1.1265    0.6174 H   0  0  0  0  0  0  0  0  0  0  0  0
   -1.5909    2.2176   -1.8196 H   0  0  0  0  0  0  0  0  0  0  0  0
  1 18  1  6  0  0  0
  1 10  1  0  0  0  0
  1  2  1  0  0  0  0
  2 19  1  0  0  0  0
  3  2  1  0  0  0  0
  3 20  1  0  0  0  0
  4  3  1  0  0  0  0
  5  4  1  0  0  0  0
  5 22  1  0  0  0  0
  6  5  2  0  0  0  0
  7  8  2  0  0  0  0
  7  6  1  0  0  0  0
  8  9  1  0  0  0  0
  9 26  1  0  0  0  0
  9  4  2  0  0  0  0
 10 27  1  6  0  0  0
 10 11  1  0  0  0  0
 11 28  1  0  0  0  0
 12 29  1  6  0  0  0
 12 13  1  0  0  0  0
 12 10  1  0  0  0  0
 13 30  1  0  0  0  0
 14 31  1  6  0  0  0
 14 16  1  0  0  0  0
 14 12  1  0  0  0  0
 15 14  1  0  0  0  0
 15 32  1  0  0  0  0
 16  1  1  0  0  0  0
 16 33  1  1  0  0  0
 17 16  1  0  0  0  0
 21  3  1  0  0  0  0
 23  6  1  0  0  0  0
 24  7  1  0  0  0  0
 25  8  1  0  0  0  0
 34 17  1  0  0  0  0
M  END
