omegapdb_1qxw_28.xyz
 OpenBabel11041815263D

 36 36  0  0  1  0  0  0  0  0999 V2000
    4.1949    1.5998   -0.9113 C   0  0  0  0  0  0  0  0  0  0  0  0
    4.6666    0.5471    0.0697 C   0  0  0  0  0  0  0  0  0  0  0  0
    3.4681    0.3000   -0.8156 C   0  0  0  0  0  0  0  0  0  0  0  0
    2.1356    0.2820   -0.2807 N   0  0  0  0  0  0  0  0  0  0  0  0
    1.8647   -0.9160    0.4960 C   0  0  0  0  0  0  0  0  0  0  0  0
    0.5015   -0.8112    1.1609 C   0  0  0  0  0  0  0  0  0  0  0  0
   -0.6312   -0.4430    0.1871 C   0  0  1  0  0  0  0  0  0  0  0  0
   -0.6205   -1.2415   -1.0320 N   0  0  0  0  0  0  0  0  0  0  0  0
   -1.9922   -0.5482    0.8783 C   0  0  0  0  0  0  0  0  0  0  0  0
   -3.0514    0.4014    0.3219 C   0  0  0  0  0  0  0  0  0  0  0  0
   -3.4487    0.1635   -1.1294 C   0  0  0  0  0  0  0  0  0  0  0  0
   -4.5578    1.1117   -1.5662 C   0  0  0  0  0  0  0  0  0  0  0  0
    0.2980   -2.0698    1.7660 O   0  0  0  0  0  0  0  0  0  0  0  0
    0.5169    0.2210    2.1362 O   0  0  0  0  0  0  0  0  0  0  0  0
    4.7949    1.7904   -1.7869 H   0  0  0  0  0  0  0  0  0  0  0  0
    3.6991    2.4682   -0.5023 H   0  0  0  0  0  0  0  0  0  0  0  0
    5.5907    0.0306   -0.1401 H   0  0  0  0  0  0  0  0  0  0  0  0
    4.4661    0.7319    1.1152 H   0  0  0  0  0  0  0  0  0  0  0  0
    3.6088   -0.3974   -1.6308 H   0  0  0  0  0  0  0  0  0  0  0  0
    1.9978    1.0905    0.3176 H   0  0  0  0  0  0  0  0  0  0  0  0
    2.6071   -1.1005    1.2859 H   0  0  0  0  0  0  0  0  0  0  0  0
    1.8798   -1.7821   -0.1644 H   0  0  0  0  0  0  0  0  0  0  0  0
   -0.4634    0.5953   -0.1008 H   0  0  0  0  0  0  0  0  0  0  0  0
   -0.5818   -2.2250   -0.7859 H   0  0  0  0  0  0  0  0  0  0  0  0
    0.2224   -1.0302   -1.5540 H   0  0  0  0  0  0  0  0  0  0  0  0
   -1.8680   -0.3215    1.9394 H   0  0  0  0  0  0  0  0  0  0  0  0
   -2.3503   -1.5793    0.7946 H   0  0  0  0  0  0  0  0  0  0  0  0
   -3.9469    0.3256    0.9455 H   0  0  0  0  0  0  0  0  0  0  0  0
   -2.6896    1.4279    0.4333 H   0  0  0  0  0  0  0  0  0  0  0  0
   -3.7751   -0.8725   -1.2446 H   0  0  0  0  0  0  0  0  0  0  0  0
   -2.5787    0.2717   -1.7740 H   0  0  0  0  0  0  0  0  0  0  0  0
   -5.4483    0.9837   -0.9499 H   0  0  0  0  0  0  0  0  0  0  0  0
   -4.2390    2.1501   -1.4719 H   0  0  0  0  0  0  0  0  0  0  0  0
   -4.8428    0.9444   -2.6038 H   0  0  0  0  0  0  0  0  0  0  0  0
   -0.5687   -2.0356    2.1890 H   0  0  0  0  0  0  0  0  0  0  0  0
    1.1415   -0.0629    2.8156 H   0  0  0  0  0  0  0  0  0  0  0  0
  1  3  1  0  0  0  0
  1 16  1  0  0  0  0
  1  2  1  0  0  0  0
  2 18  1  0  0  0  0
  3  4  1  0  0  0  0
  3  2  1  0  0  0  0
  4 20  1  0  0  0  0
  4  5  1  0  0  0  0
  5  6  1  0  0  0  0
  5 21  1  0  0  0  0
  6 13  1  0  0  0  0
  6 14  1  0  0  0  0
  7 23  1  6  0  0  0
  7  9  1  0  0  0  0
  7  6  1  0  0  0  0
  8 24  1  0  0  0  0
  8  7  1  0  0  0  0
  9 26  1  0  0  0  0
 10 29  1  0  0  0  0
 10  9  1  0  0  0  0
 10 28  1  0  0  0  0
 11 10  1  0  0  0  0
 12 33  1  0  0  0  0
 12 11  1  0  0  0  0
 12 32  1  0  0  0  0
 13 35  1  0  0  0  0
 14 36  1  0  0  0  0
 15  1  1  0  0  0  0
 17  2  1  0  0  0  0
 19  3  1  0  0  0  0
 22  5  1  0  0  0  0
 25  8  1  0  0  0  0
 27  9  1  0  0  0  0
 30 11  1  0  0  0  0
 31 11  1  0  0  0  0
 34 12  1  0  0  0  0
M  END
