omegacsd_FABSOQ10_04.xyz
 OpenBabel11041815263D

 45 47  0  0  1  0  0  0  0  0999 V2000
   -0.3487    0.3795    0.7015 S   0  0  0  0  0  0  0  0  0  0  0  0
   -0.9381    0.6350   -0.8945 C   0  0  0  0  0  0  0  0  0  0  0  0
   -0.2513   -0.1247   -1.8012 C   0  0  0  0  0  0  0  0  0  0  0  0
    0.7558   -0.9293   -1.2006 C   0  0  0  0  0  0  0  0  0  0  0  0
    0.8235   -0.7591    0.1540 C   0  0  0  0  0  0  0  0  0  0  0  0
    1.7426   -1.4777    1.1265 C   0  0  1  0  0  0  0  0  0  0  0  0
    1.5212   -2.8763    1.1077 O   0  0  0  0  0  0  0  0  0  0  0  0
    3.2070   -1.2188    0.8070 C   0  0  0  0  0  0  0  0  0  0  0  0
    3.7496    0.0428    1.0244 C   0  0  0  0  0  0  0  0  0  0  0  0
    5.0799    0.3289    0.7119 C   0  0  0  0  0  0  0  0  0  0  0  0
    5.8774   -0.6783    0.1686 C   0  0  0  0  0  0  0  0  0  0  0  0
    7.1806   -0.5173   -0.1771 O   0  0  0  0  0  0  0  0  0  0  0  0
    7.7661    0.7513    0.0255 C   0  0  0  0  0  0  0  0  0  0  0  0
    5.3412   -1.9563   -0.0508 C   0  0  0  0  0  0  0  0  0  0  0  0
    4.0175   -2.2192    0.2731 C   0  0  0  0  0  0  0  0  0  0  0  0
   -2.0468    1.6329   -1.1443 C   0  0  2  0  0  0  0  0  0  0  0  0
   -1.7650    2.8969   -0.5812 O   0  0  0  0  0  0  0  0  0  0  0  0
   -3.3827    1.1490   -0.6006 C   0  0  0  0  0  0  0  0  0  0  0  0
   -3.9344    1.7098    0.5432 C   0  0  0  0  0  0  0  0  0  0  0  0
   -5.1435    1.2396    1.0646 C   0  0  0  0  0  0  0  0  0  0  0  0
   -5.8037    0.1965    0.4172 C   0  0  0  0  0  0  0  0  0  0  0  0
   -6.9817   -0.3366    0.8321 O   0  0  0  0  0  0  0  0  0  0  0  0
   -7.5757    0.2008    1.9947 C   0  0  0  0  0  0  0  0  0  0  0  0
   -5.2537   -0.3714   -0.7430 C   0  0  0  0  0  0  0  0  0  0  0  0
   -4.0520    0.1076   -1.2388 C   0  0  0  0  0  0  0  0  0  0  0  0
   -0.4551   -0.1059   -2.8699 H   0  0  0  0  0  0  0  0  0  0  0  0
    1.4023   -1.6140   -1.7459 H   0  0  0  0  0  0  0  0  0  0  0  0
    1.5307   -1.0775    2.1231 H   0  0  0  0  0  0  0  0  0  0  0  0
    0.5999   -3.0365    1.3582 H   0  0  0  0  0  0  0  0  0  0  0  0
    3.1275    0.8281    1.4545 H   0  0  0  0  0  0  0  0  0  0  0  0
    5.4705    1.3233    0.8980 H   0  0  0  0  0  0  0  0  0  0  0  0
    7.7512    1.0326    1.0891 H   0  0  0  0  0  0  0  0  0  0  0  0
    8.7999    0.6617   -0.3156 H   0  0  0  0  0  0  0  0  0  0  0  0
    7.2500    1.5271   -0.5595 H   0  0  0  0  0  0  0  0  0  0  0  0
    5.9842   -2.7263   -0.4717 H   0  0  0  0  0  0  0  0  0  0  0  0
    3.6053   -3.2092    0.1166 H   0  0  0  0  0  0  0  0  0  0  0  0
   -2.1469    1.7199   -2.2385 H   0  0  0  0  0  0  0  0  0  0  0  0
   -0.8896    3.1759   -0.8839 H   0  0  0  0  0  0  0  0  0  0  0  0
   -3.4173    2.5268    1.0314 H   0  0  0  0  0  0  0  0  0  0  0  0
   -5.5481    1.6969    1.9626 H   0  0  0  0  0  0  0  0  0  0  0  0
   -7.8110    1.2679    1.8663 H   0  0  0  0  0  0  0  0  0  0  0  0
   -6.9209    0.0792    2.8704 H   0  0  0  0  0  0  0  0  0  0  0  0
   -8.4993   -0.3623    2.1467 H   0  0  0  0  0  0  0  0  0  0  0  0
   -5.7893   -1.1802   -1.2318 H   0  0  0  0  0  0  0  0  0  0  0  0
   -3.6294   -0.3331   -2.1425 H   0  0  0  0  0  0  0  0  0  0  0  0
  2  1  1  0  0  0  0
  3  4  1  0  0  0  0
  3  2  2  0  0  0  0
  4  5  2  0  0  0  0
  5  1  1  0  0  0  0
  5  6  1  0  0  0  0
  6 28  1  1  0  0  0
  7  6  1  0  0  0  0
  7 29  1  0  0  0  0
  8  9  1  0  0  0  0
  8  6  1  0  0  0  0
  9 30  1  0  0  0  0
 10 31  1  0  0  0  0
 10  9  2  0  0  0  0
 11 10  1  0  0  0  0
 12 13  1  0  0  0  0
 12 11  1  0  0  0  0
 13 32  1  0  0  0  0
 14 11  2  0  0  0  0
 14 15  1  0  0  0  0
 15  8  2  0  0  0  0
 16 37  1  6  0  0  0
 16  2  1  0  0  0  0
 16 18  1  0  0  0  0
 16 17  1  0  0  0  0
 18 19  2  0  0  0  0
 19 39  1  0  0  0  0
 19 20  1  0  0  0  0
 20 40  1  0  0  0  0
 21 22  1  0  0  0  0
 21 20  2  0  0  0  0
 22 23  1  0  0  0  0
 23 43  1  0  0  0  0
 23 42  1  0  0  0  0
 24 21  1  0  0  0  0
 25 24  2  0  0  0  0
 25 18  1  0  0  0  0
 26  3  1  0  0  0  0
 27  4  1  0  0  0  0
 33 13  1  0  0  0  0
 34 13  1  0  0  0  0
 35 14  1  0  0  0  0
 36 15  1  0  0  0  0
 38 17  1  0  0  0  0
 41 23  1  0  0  0  0
 44 24  1  0  0  0  0
 45 25  1  0  0  0  0
M  END
