omegapdb_1qxw_25.xyz
 OpenBabel11041815263D

 36 36  0  0  1  0  0  0  0  0999 V2000
    4.6922    0.5522   -1.1381 C   0  0  0  0  0  0  0  0  0  0  0  0
    4.4128    1.2379    0.1769 C   0  0  0  0  0  0  0  0  0  0  0  0
    3.9221   -0.1593   -0.0678 C   0  0  0  0  0  0  0  0  0  0  0  0
    2.5095   -0.3135   -0.2703 N   0  0  0  0  0  0  0  0  0  0  0  0
    1.7995   -0.4982    0.9867 C   0  0  0  0  0  0  0  0  0  0  0  0
    0.3001   -0.6946    0.7942 C   0  0  0  0  0  0  0  0  0  0  0  0
   -0.4097    0.5509    0.2168 C   0  0  1  0  0  0  0  0  0  0  0  0
   -0.1301    0.7935   -1.1952 N   0  0  0  0  0  0  0  0  0  0  0  0
   -1.9224    0.5585    0.4495 C   0  0  0  0  0  0  0  0  0  0  0  0
   -2.7026   -0.6192   -0.1311 C   0  0  0  0  0  0  0  0  0  0  0  0
   -4.2153   -0.3958   -0.1067 C   0  0  0  0  0  0  0  0  0  0  0  0
   -4.6838    0.6665   -1.0941 C   0  0  0  0  0  0  0  0  0  0  0  0
    0.1889   -1.8328   -0.0428 O   0  0  0  0  0  0  0  0  0  0  0  0
   -0.2932   -0.9358    2.0534 O   0  0  0  0  0  0  0  0  0  0  0  0
    5.7014    0.2281   -1.3380 H   0  0  0  0  0  0  0  0  0  0  0  0
    4.1254    0.8842   -1.9936 H   0  0  0  0  0  0  0  0  0  0  0  0
    5.2343    1.3804    0.8613 H   0  0  0  0  0  0  0  0  0  0  0  0
    3.6601    2.0113    0.1727 H   0  0  0  0  0  0  0  0  0  0  0  0
    4.4406   -0.9527    0.4661 H   0  0  0  0  0  0  0  0  0  0  0  0
    2.3285   -1.1223   -0.8563 H   0  0  0  0  0  0  0  0  0  0  0  0
    2.1697   -1.3721    1.5472 H   0  0  0  0  0  0  0  0  0  0  0  0
    1.9538    0.3814    1.6109 H   0  0  0  0  0  0  0  0  0  0  0  0
   -0.0050    1.4008    0.7715 H   0  0  0  0  0  0  0  0  0  0  0  0
    0.8785    0.7979   -1.3123 H   0  0  0  0  0  0  0  0  0  0  0  0
   -0.4501   -0.0040   -1.7328 H   0  0  0  0  0  0  0  0  0  0  0  0
   -2.1237    0.6094    1.5189 H   0  0  0  0  0  0  0  0  0  0  0  0
   -2.2778    1.4840   -0.0033 H   0  0  0  0  0  0  0  0  0  0  0  0
   -2.4841   -1.5156    0.4556 H   0  0  0  0  0  0  0  0  0  0  0  0
   -2.4046   -0.8112   -1.1672 H   0  0  0  0  0  0  0  0  0  0  0  0
   -4.5150   -0.1206    0.9071 H   0  0  0  0  0  0  0  0  0  0  0  0
   -4.7175   -1.3379   -0.3331 H   0  0  0  0  0  0  0  0  0  0  0  0
   -5.7683    0.7623   -1.0801 H   0  0  0  0  0  0  0  0  0  0  0  0
   -4.2638    1.6442   -0.8670 H   0  0  0  0  0  0  0  0  0  0  0  0
   -4.3838    0.4050   -2.1091 H   0  0  0  0  0  0  0  0  0  0  0  0
   -0.7520   -1.9860   -0.1875 H   0  0  0  0  0  0  0  0  0  0  0  0
    0.1853   -1.6773    2.4445 H   0  0  0  0  0  0  0  0  0  0  0  0
  1  3  1  0  0  0  0
  1  2  1  0  0  0  0
  2 17  1  0  0  0  0
  3  2  1  0  0  0  0
  3 19  1  0  0  0  0
  4  3  1  0  0  0  0
  4  5  1  0  0  0  0
  5 21  1  0  0  0  0
  5 22  1  0  0  0  0
  6  5  1  0  0  0  0
  6 14  1  0  0  0  0
  7  9  1  0  0  0  0
  7 23  1  1  0  0  0
  7  6  1  0  0  0  0
  8  7  1  0  0  0  0
  9 26  1  0  0  0  0
 10 11  1  0  0  0  0
 10  9  1  0  0  0  0
 10 28  1  0  0  0  0
 11 30  1  0  0  0  0
 12 32  1  0  0  0  0
 12 33  1  0  0  0  0
 12 11  1  0  0  0  0
 13  6  1  0  0  0  0
 14 36  1  0  0  0  0
 15  1  1  0  0  0  0
 16  1  1  0  0  0  0
 18  2  1  0  0  0  0
 20  4  1  0  0  0  0
 24  8  1  0  0  0  0
 25  8  1  0  0  0  0
 27  9  1  0  0  0  0
 29 10  1  0  0  0  0
 31 11  1  0  0  0  0
 34 12  1  0  0  0  0
 35 13  1  0  0  0  0
M  END
