omegacsd_CEJTIU_07.xyz
 OpenBabel11041815263D

 41 42  0  0  0  0  0  0  0  0999 V2000
   -6.3673   -1.0721   -0.2300 C   0  0  0  0  0  0  0  0  0  0  0  0
   -5.9464    0.2994   -0.0225 N   0  0  0  0  0  0  0  0  0  0  0  0
   -6.8156    1.0799    0.8351 C   0  0  0  0  0  0  0  0  0  0  0  0
   -4.5779    0.5259    0.0961 C   0  0  0  0  0  0  0  0  0  0  0  0
   -3.6319   -0.4055   -0.3672 C   0  0  0  0  0  0  0  0  0  0  0  0
   -2.2624   -0.1681   -0.3059 C   0  0  0  0  0  0  0  0  0  0  0  0
   -1.7846    1.0223    0.2451 C   0  0  0  0  0  0  0  0  0  0  0  0
   -2.7095    1.9496    0.7301 C   0  0  0  0  0  0  0  0  0  0  0  0
   -4.0750    1.7092    0.6676 C   0  0  0  0  0  0  0  0  0  0  0  0
   -0.4209    1.3579    0.3469 N   0  0  0  0  0  0  0  0  0  0  0  0
    0.6571    0.5924   -0.0101 C   0  0  0  0  0  0  0  0  0  0  0  0
    0.5941   -0.5361   -0.4632 O   0  0  0  0  0  0  0  0  0  0  0  0
    1.8613    1.2741    0.2068 N   0  0  0  0  0  0  0  0  0  0  0  0
    3.1760    0.8338    0.0364 C   0  0  0  0  0  0  0  0  0  0  0  0
    4.0767    1.6246    0.2448 O   0  0  0  0  0  0  0  0  0  0  0  0
    3.3917   -0.6003   -0.3918 C   0  0  0  0  0  0  0  0  0  0  0  0
    4.8474   -0.9560   -0.4109 C   0  0  0  0  0  0  0  0  0  0  0  0
    5.4190   -1.6593    0.6499 C   0  0  0  0  0  0  0  0  0  0  0  0
    6.7740   -1.9829    0.6413 C   0  0  0  0  0  0  0  0  0  0  0  0
    7.5737   -1.6031   -0.4340 C   0  0  0  0  0  0  0  0  0  0  0  0
    7.0113   -0.9002   -1.4983 C   0  0  0  0  0  0  0  0  0  0  0  0
    5.6572   -0.5796   -1.4840 C   0  0  0  0  0  0  0  0  0  0  0  0
   -5.9807   -1.4532   -1.1727 H   0  0  0  0  0  0  0  0  0  0  0  0
   -7.4522   -1.0963   -0.2882 H   0  0  0  0  0  0  0  0  0  0  0  0
   -6.0424   -1.7440    0.5746 H   0  0  0  0  0  0  0  0  0  0  0  0
   -6.6003    0.9394    1.9022 H   0  0  0  0  0  0  0  0  0  0  0  0
   -6.7318    2.1399    0.6043 H   0  0  0  0  0  0  0  0  0  0  0  0
   -7.8445    0.7859    0.6458 H   0  0  0  0  0  0  0  0  0  0  0  0
   -3.9538   -1.3424   -0.7941 H   0  0  0  0  0  0  0  0  0  0  0  0
   -1.5699   -0.9063   -0.6726 H   0  0  0  0  0  0  0  0  0  0  0  0
   -2.3611    2.8751    1.1743 H   0  0  0  0  0  0  0  0  0  0  0  0
   -4.7420    2.4581    1.0645 H   0  0  0  0  0  0  0  0  0  0  0  0
   -0.2374    2.2501    0.7744 H   0  0  0  0  0  0  0  0  0  0  0  0
    1.8347    2.2430    0.4900 H   0  0  0  0  0  0  0  0  0  0  0  0
    2.8262   -1.2513    0.2734 H   0  0  0  0  0  0  0  0  0  0  0  0
    2.9309   -0.7289   -1.3718 H   0  0  0  0  0  0  0  0  0  0  0  0
    4.7982   -1.9572    1.4858 H   0  0  0  0  0  0  0  0  0  0  0  0
    7.2027   -2.5308    1.4694 H   0  0  0  0  0  0  0  0  0  0  0  0
    8.6254   -1.8544   -0.4442 H   0  0  0  0  0  0  0  0  0  0  0  0
    7.6266   -0.6028   -2.3366 H   0  0  0  0  0  0  0  0  0  0  0  0
    5.2233   -0.0301   -2.3101 H   0  0  0  0  0  0  0  0  0  0  0  0
  1  2  1  0  0  0  0
  1 25  1  0  0  0  0
  2  4  1  0  0  0  0
  2  3  1  0  0  0  0
  3 26  1  0  0  0  0
  4  9  2  0  0  0  0
  5  6  2  0  0  0  0
  5  4  1  0  0  0  0
  6  7  1  0  0  0  0
  7 10  1  0  0  0  0
  7  8  2  0  0  0  0
  8 31  1  0  0  0  0
  9  8  1  0  0  0  0
  9 32  1  0  0  0  0
 10 33  1  0  0  0  0
 11 13  1  0  0  0  0
 11 10  1  0  0  0  0
 12 11  2  0  0  0  0
 13 34  1  0  0  0  0
 14 13  1  0  0  0  0
 14 15  2  0  0  0  0
 16 14  1  0  0  0  0
 16 35  1  0  0  0  0
 17 16  1  0  0  0  0
 17 18  2  0  0  0  0
 18 37  1  0  0  0  0
 19 18  1  0  0  0  0
 19 38  1  0  0  0  0
 20 19  2  0  0  0  0
 21 22  2  0  0  0  0
 21 20  1  0  0  0  0
 22 17  1  0  0  0  0
 23  1  1  0  0  0  0
 24  1  1  0  0  0  0
 27  3  1  0  0  0  0
 28  3  1  0  0  0  0
 29  5  1  0  0  0  0
 30  6  1  0  0  0  0
 36 16  1  0  0  0  0
 39 20  1  0  0  0  0
 40 21  1  0  0  0  0
 41 22  1  0  0  0  0
M  END
