omegacsd_SPIRIL_06.xyz
 OpenBabel11041815263D

 57 60  0  0  1  0  0  0  0  0999 V2000
   -2.3691   -0.1045   -1.5647 C   0  0  0  0  0  0  0  0  0  0  0  0
   -2.8717   -1.1977   -0.6044 C   0  0  2  0  0  0  0  0  0  0  0  0
   -2.8492   -2.5259   -1.3568 C   0  0  0  0  0  0  0  0  0  0  0  0
   -1.8585   -3.1295   -1.7324 O   0  0  0  0  0  0  0  0  0  0  0  0
   -4.1393   -2.9059   -1.5415 N   0  0  0  0  0  0  0  0  0  0  0  0
   -5.1138   -1.9775   -1.0396 C   0  0  0  0  0  0  0  0  0  0  0  0
   -4.2934   -1.0567   -0.2755 N   0  0  0  0  0  0  0  0  0  0  0  0
   -4.8895    0.0971    0.2155 C   0  0  0  0  0  0  0  0  0  0  0  0
   -4.1535    1.1618    0.7719 C   0  0  0  0  0  0  0  0  0  0  0  0
   -4.8002    2.2791    1.2895 C   0  0  0  0  0  0  0  0  0  0  0  0
   -6.1890    2.3817    1.2738 C   0  0  0  0  0  0  0  0  0  0  0  0
   -6.9266    1.3385    0.7240 C   0  0  0  0  0  0  0  0  0  0  0  0
   -6.2925    0.2163    0.1995 C   0  0  0  0  0  0  0  0  0  0  0  0
   -2.0130   -1.3270    0.6613 C   0  0  0  0  0  0  0  0  0  0  0  0
   -0.5235   -1.1989    0.3797 C   0  0  0  0  0  0  0  0  0  0  0  0
   -0.2515    0.0352   -0.3566 N   0  0  0  0  0  0  0  0  0  0  0  0
    1.1849    0.2554   -0.4813 C   0  0  0  0  0  0  0  0  0  0  0  0
    1.8392    0.7038    0.8268 C   0  0  0  0  0  0  0  0  0  0  0  0
    3.2787    1.0465    0.5969 C   0  0  0  0  0  0  0  0  0  0  0  0
    4.3210    0.1978    0.6993 C   0  0  0  0  0  0  0  0  0  0  0  0
    5.6903    0.6579    0.3906 C   0  0  0  0  0  0  0  0  0  0  0  0
    6.7934    0.1490    1.0907 C   0  0  0  0  0  0  0  0  0  0  0  0
    8.0867    0.5916    0.8287 C   0  0  0  0  0  0  0  0  0  0  0  0
    8.2775    1.5450   -0.1585 C   0  0  0  0  0  0  0  0  0  0  0  0
    7.2181    2.0579   -0.8911 C   0  0  0  0  0  0  0  0  0  0  0  0
    5.9323    1.6058   -0.6142 C   0  0  0  0  0  0  0  0  0  0  0  0
    9.5250    1.9731   -0.4238 F   0  0  0  0  0  0  0  0  0  0  0  0
    4.1686   -1.2303    1.1469 C   0  0  0  0  0  0  0  0  0  0  0  0
   -0.8533   -0.0844   -1.6836 C   0  0  0  0  0  0  0  0  0  0  0  0
   -2.7023    0.8670   -1.2058 H   0  0  0  0  0  0  0  0  0  0  0  0
   -2.8226   -0.2608   -2.5471 H   0  0  0  0  0  0  0  0  0  0  0  0
   -4.3701   -3.7272   -2.0749 H   0  0  0  0  0  0  0  0  0  0  0  0
   -5.8463   -2.4764   -0.3991 H   0  0  0  0  0  0  0  0  0  0  0  0
   -5.6531   -1.4709   -1.8525 H   0  0  0  0  0  0  0  0  0  0  0  0
   -3.0764    1.1334    0.8016 H   0  0  0  0  0  0  0  0  0  0  0  0
   -4.2011    3.0773    1.7070 H   0  0  0  0  0  0  0  0  0  0  0  0
   -6.6825    3.2533    1.6790 H   0  0  0  0  0  0  0  0  0  0  0  0
   -8.0068    1.3902    0.6956 H   0  0  0  0  0  0  0  0  0  0  0  0
   -6.9035   -0.5726   -0.2134 H   0  0  0  0  0  0  0  0  0  0  0  0
   -2.2250   -2.2921    1.1256 H   0  0  0  0  0  0  0  0  0  0  0  0
   -2.3041   -0.5592    1.3739 H   0  0  0  0  0  0  0  0  0  0  0  0
   -0.1640   -2.0721   -0.1830 H   0  0  0  0  0  0  0  0  0  0  0  0
    0.0044   -1.1686    1.3318 H   0  0  0  0  0  0  0  0  0  0  0  0
    1.3371    1.0393   -1.2263 H   0  0  0  0  0  0  0  0  0  0  0  0
    1.7001   -0.6450   -0.8569 H   0  0  0  0  0  0  0  0  0  0  0  0
    1.2976    1.5765    1.1923 H   0  0  0  0  0  0  0  0  0  0  0  0
    1.7459   -0.0706    1.5858 H   0  0  0  0  0  0  0  0  0  0  0  0
    3.4887    2.0673    0.2959 H   0  0  0  0  0  0  0  0  0  0  0  0
    6.6438   -0.5905    1.8649 H   0  0  0  0  0  0  0  0  0  0  0  0
    8.9371    0.2091    1.3744 H   0  0  0  0  0  0  0  0  0  0  0  0
    7.4080    2.7811   -1.6709 H   0  0  0  0  0  0  0  0  0  0  0  0
    5.1046    1.9736   -1.2050 H   0  0  0  0  0  0  0  0  0  0  0  0
    4.5307   -1.3656    2.1679 H   0  0  0  0  0  0  0  0  0  0  0  0
    3.1319   -1.5547    1.1178 H   0  0  0  0  0  0  0  0  0  0  0  0
    4.7506   -1.8937    0.5073 H   0  0  0  0  0  0  0  0  0  0  0  0
   -0.4954   -0.9867   -2.2005 H   0  0  0  0  0  0  0  0  0  0  0  0
   -0.5561    0.7834   -2.2740 H   0  0  0  0  0  0  0  0  0  0  0  0
  1 30  1  0  0  0  0
  2  1  1  6  0  0  0
  2  7  1  0  0  0  0
  2 14  1  0  0  0  0
  3  2  1  0  0  0  0
  4  3  2  0  0  0  0
  5  3  1  0  0  0  0
  5  6  1  0  0  0  0
  6 33  1  0  0  0  0
  6  7  1  0  0  0  0
  7  8  1  0  0  0  0
  8  9  1  0  0  0  0
  9 35  1  0  0  0  0
  9 10  2  0  0  0  0
 10 36  1  0  0  0  0
 11 10  1  0  0  0  0
 11 37  1  0  0  0  0
 12 11  2  0  0  0  0
 13  8  2  0  0  0  0
 13 12  1  0  0  0  0
 14 40  1  0  0  0  0
 14 41  1  0  0  0  0
 15 14  1  0  0  0  0
 15 43  1  0  0  0  0
 16 15  1  0  0  0  0
 17 16  1  0  0  0  0
 17 18  1  0  0  0  0
 18 46  1  0  0  0  0
 18 47  1  0  0  0  0
 19 20  2  0  0  0  0
 19 18  1  0  0  0  0
 20 28  1  0  0  0  0
 21 20  1  0  0  0  0
 21 22  2  0  0  0  0
 22 49  1  0  0  0  0
 23 22  1  0  0  0  0
 23 50  1  0  0  0  0
 24 23  2  0  0  0  0
 25 26  2  0  0  0  0
 25 24  1  0  0  0  0
 26 21  1  0  0  0  0
 27 24  1  0  0  0  0
 28 53  1  0  0  0  0
 29  1  1  0  0  0  0
 29 16  1  0  0  0  0
 31  1  1  0  0  0  0
 32  5  1  0  0  0  0
 34  6  1  0  0  0  0
 38 12  1  0  0  0  0
 39 13  1  0  0  0  0
 42 15  1  0  0  0  0
 44 17  1  0  0  0  0
 45 17  1  0  0  0  0
 48 19  1  0  0  0  0
 51 25  1  0  0  0  0
 52 26  1  0  0  0  0
 54 28  1  0  0  0  0
 55 28  1  0  0  0  0
 56 29  1  0  0  0  0
 57 29  1  0  0  0  0
M  END
