omegacsd_CUHNEY10_13.xyz
 OpenBabel11041815263D

 44 47  0  0  1  0  0  0  0  0999 V2000
   -0.3569   -5.4436   -1.0889 Cl  0  0  0  0  0  0  0  0  0  0  0  0
   -0.9480   -3.8224   -1.0214 C   0  0  0  0  0  0  0  0  0  0  0  0
   -0.6564   -3.0251    0.0807 C   0  0  0  0  0  0  0  0  0  0  0  0
   -1.0779   -1.7625    0.1836 N   0  0  0  0  0  0  0  0  0  0  0  0
   -1.8178   -1.2608   -0.8100 C   0  0  0  0  0  0  0  0  0  0  0  0
   -2.2266    0.0655   -0.6141 N   0  0  0  0  0  0  0  0  0  0  0  0
   -3.2168    0.7375   -1.3309 C   0  0  0  0  0  0  0  0  0  0  0  0
   -3.8568    0.3153   -2.2721 O   0  0  0  0  0  0  0  0  0  0  0  0
   -3.3206    2.0682   -0.6647 C   0  0  0  0  0  0  0  0  0  0  0  0
   -4.1402    3.0636   -0.9974 N   0  0  0  0  0  0  0  0  0  0  0  0
   -3.9900    4.1396   -0.2083 C   0  0  0  0  0  0  0  0  0  0  0  0
   -3.0653    4.2030    0.8419 C   0  0  0  0  0  0  0  0  0  0  0  0
   -2.2443    3.1876    1.1611 N   0  0  0  0  0  0  0  0  0  0  0  0
   -2.4111    2.1243    0.3797 C   0  0  0  0  0  0  0  0  0  0  0  0
   -1.6348    0.8460    0.4620 C   0  0  2  0  0  0  0  0  0  0  0  0
   -0.2705    1.0760    0.1527 O   0  0  0  0  0  0  0  0  0  0  0  0
    0.6036    0.8673    1.2003 C   0  0  0  0  0  0  0  0  0  0  0  0
    0.2502    0.6214    2.3353 O   0  0  0  0  0  0  0  0  0  0  0  0
    1.8818    1.0026    0.7756 N   0  0  0  0  0  0  0  0  0  0  0  0
    2.2751    1.0517   -0.6210 C   0  0  0  0  0  0  0  0  0  0  0  0
    2.7412   -0.3412   -1.0667 C   0  0  0  0  0  0  0  0  0  0  0  0
    3.4565   -1.0594   -0.0030 N   0  0  0  0  0  0  0  0  0  0  0  0
    4.0298   -0.1229    0.9492 C   0  0  0  0  0  0  0  0  0  0  0  0
    2.9606    0.6853    1.7046 C   0  0  0  0  0  0  0  0  0  0  0  0
    2.6358   -2.0661    0.6551 C   0  0  0  0  0  0  0  0  0  0  0  0
   -2.1595   -1.9860   -1.9580 C   0  0  0  0  0  0  0  0  0  0  0  0
   -1.7099   -3.2951   -2.0585 C   0  0  0  0  0  0  0  0  0  0  0  0
   -0.0700   -3.4156    0.9017 H   0  0  0  0  0  0  0  0  0  0  0  0
   -4.6265    4.9888   -0.4199 H   0  0  0  0  0  0  0  0  0  0  0  0
   -2.9843    5.0998    1.4419 H   0  0  0  0  0  0  0  0  0  0  0  0
   -1.7030    0.3423    1.4239 H   0  0  0  0  0  0  0  0  0  0  0  0
    3.0875    1.7746   -0.7123 H   0  0  0  0  0  0  0  0  0  0  0  0
    1.4487    1.4057   -1.2263 H   0  0  0  0  0  0  0  0  0  0  0  0
    1.8738   -0.9348   -1.3586 H   0  0  0  0  0  0  0  0  0  0  0  0
    3.3840   -0.2377   -1.9455 H   0  0  0  0  0  0  0  0  0  0  0  0
    4.6997    0.5462    0.4072 H   0  0  0  0  0  0  0  0  0  0  0  0
    4.6413   -0.6689    1.6679 H   0  0  0  0  0  0  0  0  0  0  0  0
    3.3918    1.5988    2.1228 H   0  0  0  0  0  0  0  0  0  0  0  0
    2.5316    0.1129    2.5230 H   0  0  0  0  0  0  0  0  0  0  0  0
    2.3156   -2.8008   -0.0825 H   0  0  0  0  0  0  0  0  0  0  0  0
    3.2427   -2.5825    1.3995 H   0  0  0  0  0  0  0  0  0  0  0  0
    1.7411   -1.6695    1.1522 H   0  0  0  0  0  0  0  0  0  0  0  0
   -2.7600   -1.5334   -2.7290 H   0  0  0  0  0  0  0  0  0  0  0  0
   -1.9449   -3.8957   -2.9254 H   0  0  0  0  0  0  0  0  0  0  0  0
  1  2  1  0  0  0  0
  2  3  2  0  0  0  0
  3  4  1  0  0  0  0
  3 28  1  0  0  0  0
  5  6  1  0  0  0  0
  5  4  2  0  0  0  0
  6 15  1  0  0  0  0
  7  9  1  0  0  0  0
  7  6  1  0  0  0  0
  8  7  2  0  0  0  0
  9 14  1  0  0  0  0
 10  9  2  0  0  0  0
 10 11  1  0  0  0  0
 11 12  2  0  0  0  0
 12 13  1  0  0  0  0
 12 30  1  0  0  0  0
 14 15  1  0  0  0  0
 14 13  2  0  0  0  0
 15 31  1  1  0  0  0
 16 15  1  0  0  0  0
 16 17  1  0  0  0  0
 17 18  2  0  0  0  0
 19 17  1  0  0  0  0
 19 24  1  0  0  0  0
 20 19  1  0  0  0  0
 21 20  1  0  0  0  0
 21 22  1  0  0  0  0
 22 25  1  0  0  0  0
 22 23  1  0  0  0  0
 23 37  1  0  0  0  0
 23 24  1  0  0  0  0
 24 38  1  0  0  0  0
 24 39  1  0  0  0  0
 25 42  1  0  0  0  0
 25 41  1  0  0  0  0
 26  5  1  0  0  0  0
 27 26  2  0  0  0  0
 27  2  1  0  0  0  0
 29 11  1  0  0  0  0
 32 20  1  0  0  0  0
 33 20  1  0  0  0  0
 34 21  1  0  0  0  0
 35 21  1  0  0  0  0
 36 23  1  0  0  0  0
 40 25  1  0  0  0  0
 43 26  1  0  0  0  0
 44 27  1  0  0  0  0
M  END
