omegacsd_CUHNEY10_00.xyz
 OpenBabel11041815263D

 44 47  0  0  1  0  0  0  0  0999 V2000
    0.2735   -5.0315   -0.5818 Cl  0  0  0  0  0  0  0  0  0  0  0  0
   -0.4915   -3.4839   -0.6172 C   0  0  0  0  0  0  0  0  0  0  0  0
   -0.4369   -2.6579    0.5015 C   0  0  0  0  0  0  0  0  0  0  0  0
   -1.0050   -1.4500    0.5260 N   0  0  0  0  0  0  0  0  0  0  0  0
   -1.6515   -1.0309   -0.5654 C   0  0  0  0  0  0  0  0  0  0  0  0
   -2.2025    0.2520   -0.4528 N   0  0  0  0  0  0  0  0  0  0  0  0
   -3.1715    0.8085   -1.2851 C   0  0  0  0  0  0  0  0  0  0  0  0
   -3.7069    0.2840   -2.2401 O   0  0  0  0  0  0  0  0  0  0  0  0
   -3.4056    2.1703   -0.7213 C   0  0  0  0  0  0  0  0  0  0  0  0
   -4.2665    3.0810   -1.1716 N   0  0  0  0  0  0  0  0  0  0  0  0
   -4.2393    4.2152   -0.4536 C   0  0  0  0  0  0  0  0  0  0  0  0
   -3.3931    4.4127    0.6450 C   0  0  0  0  0  0  0  0  0  0  0  0
   -2.5298    3.4811    1.0847 N   0  0  0  0  0  0  0  0  0  0  0  0
   -2.5705    2.3608    0.3691 C   0  0  0  0  0  0  0  0  0  0  0  0
   -1.7211    1.1482    0.5932 C   0  0  2  0  0  0  0  0  0  0  0  0
   -0.3612    1.4451    0.3394 O   0  0  0  0  0  0  0  0  0  0  0  0
    0.5146    1.0910    1.3481 C   0  0  0  0  0  0  0  0  0  0  0  0
    0.1689    0.8612    2.4868 O   0  0  0  0  0  0  0  0  0  0  0  0
    1.7912    1.1029    0.8807 N   0  0  0  0  0  0  0  0  0  0  0  0
    2.1210    1.0202   -0.5356 C   0  0  0  0  0  0  0  0  0  0  0  0
    2.3450   -0.4308   -0.9268 C   0  0  0  0  0  0  0  0  0  0  0  0
    3.3889   -1.0186   -0.0958 N   0  0  0  0  0  0  0  0  0  0  0  0
    3.0236   -0.9411    1.3143 C   0  0  0  0  0  0  0  0  0  0  0  0
    2.8128    0.5056    1.7286 C   0  0  0  0  0  0  0  0  0  0  0  0
    3.6088   -2.4031   -0.4789 C   0  0  0  0  0  0  0  0  0  0  0  0
   -1.7589   -1.7916   -1.7358 C   0  0  0  0  0  0  0  0  0  0  0  0
   -1.1626   -3.0450   -1.7540 C   0  0  0  0  0  0  0  0  0  0  0  0
    0.0734   -2.9797    1.4001 H   0  0  0  0  0  0  0  0  0  0  0  0
   -4.9152    5.0017   -0.7631 H   0  0  0  0  0  0  0  0  0  0  0  0
   -3.4131    5.3501    1.1850 H   0  0  0  0  0  0  0  0  0  0  0  0
   -1.8141    0.7121    1.5860 H   0  0  0  0  0  0  0  0  0  0  0  0
    1.3296    1.4703   -1.1235 H   0  0  0  0  0  0  0  0  0  0  0  0
    3.0437    1.5813   -0.6920 H   0  0  0  0  0  0  0  0  0  0  0  0
    2.6622   -0.4878   -1.9696 H   0  0  0  0  0  0  0  0  0  0  0  0
    1.3927   -0.9799   -0.8307 H   0  0  0  0  0  0  0  0  0  0  0  0
    2.0990   -1.5045    1.5231 H   0  0  0  0  0  0  0  0  0  0  0  0
    3.8286   -1.3839    1.9028 H   0  0  0  0  0  0  0  0  0  0  0  0
    2.4878    0.5758    2.7620 H   0  0  0  0  0  0  0  0  0  0  0  0
    3.7384    1.0665    1.5943 H   0  0  0  0  0  0  0  0  0  0  0  0
    4.4090   -2.8267    0.1260 H   0  0  0  0  0  0  0  0  0  0  0  0
    3.9066   -2.4494   -1.5254 H   0  0  0  0  0  0  0  0  0  0  0  0
    2.7088   -3.0229   -0.3478 H   0  0  0  0  0  0  0  0  0  0  0  0
   -2.2971   -1.4090   -2.5872 H   0  0  0  0  0  0  0  0  0  0  0  0
   -1.2143   -3.6695   -2.6342 H   0  0  0  0  0  0  0  0  0  0  0  0
  2  1  1  0  0  0  0
  2  3  2  0  0  0  0
  3  4  1  0  0  0  0
  3 28  1  0  0  0  0
  5  6  1  0  0  0  0
  5  4  2  0  0  0  0
  6 15  1  0  0  0  0
  7  9  1  0  0  0  0
  7  6  1  0  0  0  0
  8  7  2  0  0  0  0
  9 14  1  0  0  0  0
 10  9  2  0  0  0  0
 10 11  1  0  0  0  0
 11 12  2  0  0  0  0
 12 13  1  0  0  0  0
 12 30  1  0  0  0  0
 14 15  1  0  0  0  0
 14 13  2  0  0  0  0
 15 31  1  1  0  0  0
 16 15  1  0  0  0  0
 16 17  1  0  0  0  0
 17 18  2  0  0  0  0
 19 17  1  0  0  0  0
 19 24  1  0  0  0  0
 20 19  1  0  0  0  0
 21 35  1  0  0  0  0
 21 20  1  0  0  0  0
 21 22  1  0  0  0  0
 22 23  1  0  0  0  0
 23 36  1  0  0  0  0
 23 24  1  0  0  0  0
 23 37  1  0  0  0  0
 24 38  1  0  0  0  0
 25 42  1  0  0  0  0
 25 22  1  0  0  0  0
 25 40  1  0  0  0  0
 26  5  1  0  0  0  0
 27 26  2  0  0  0  0
 27  2  1  0  0  0  0
 29 11  1  0  0  0  0
 32 20  1  0  0  0  0
 33 20  1  0  0  0  0
 34 21  1  0  0  0  0
 39 24  1  0  0  0  0
 41 25  1  0  0  0  0
 43 26  1  0  0  0  0
 44 27  1  0  0  0  0
M  END
