omegapdb_1xom_04.xyz
 OpenBabel11041815263D

 50 52  0  0  1  0  0  0  0  0999 V2000
    6.4411    0.9897   -0.8314 O   0  0  0  0  0  0  0  0  0  0  0  0
    5.5908    1.9179   -0.3276 C   0  0  0  0  0  0  0  0  0  0  0  0
    5.9340    3.0529   -0.0856 O   0  0  0  0  0  0  0  0  0  0  0  0
    4.2140    1.3526   -0.1141 C   0  0  1  0  0  0  0  0  0  0  0  0
    3.6104    0.8317   -1.4208 C   0  0  0  0  0  0  0  0  0  0  0  0
    2.1989    0.3095   -1.1820 C   0  0  0  0  0  0  0  0  0  0  0  0
    2.1625   -0.8010   -0.1090 C   0  0  2  0  0  0  0  0  0  0  0  0
    2.8261   -0.2846    1.1861 C   0  0  0  0  0  0  0  0  0  0  0  0
    4.2351    0.2408    0.9394 C   0  0  0  0  0  0  0  0  0  0  0  0
    2.9572   -1.9269   -0.6023 C   0  0  0  0  0  0  0  0  0  0  0  0
    3.6147   -2.8129   -1.0006 N   0  0  0  0  0  0  0  0  0  0  0  0
    0.7368   -1.2496    0.1543 C   0  0  0  0  0  0  0  0  0  0  0  0
    0.3063   -2.5553   -0.0656 C   0  0  0  0  0  0  0  0  0  0  0  0
   -1.0143   -2.9284    0.1935 C   0  0  0  0  0  0  0  0  0  0  0  0
   -1.9332   -1.9984    0.6772 C   0  0  0  0  0  0  0  0  0  0  0  0
   -3.2281   -2.2712    0.9847 O   0  0  0  0  0  0  0  0  0  0  0  0
   -3.6382   -3.6206    0.8242 C   0  0  0  0  0  0  0  0  0  0  0  0
   -1.5109   -0.6693    0.8842 C   0  0  0  0  0  0  0  0  0  0  0  0
   -0.1933   -0.3170    0.6294 C   0  0  0  0  0  0  0  0  0  0  0  0
   -2.3653    0.2713    1.3923 O   0  0  0  0  0  0  0  0  0  0  0  0
   -3.3840    0.6752    0.4651 C   0  0  0  0  0  0  0  0  0  0  0  0
   -4.3288    1.6508    1.1386 C   0  0  0  0  0  0  0  0  0  0  0  0
   -5.0683    2.2422   -0.0579 C   0  0  0  0  0  0  0  0  0  0  0  0
   -3.9611    2.4504   -1.1125 C   0  0  0  0  0  0  0  0  0  0  0  0
   -2.8391    1.4513   -0.7395 C   0  0  0  0  0  0  0  0  0  0  0  0
    7.2926    1.4429   -0.9256 H   0  0  0  0  0  0  0  0  0  0  0  0
    3.6091    2.1827    0.2557 H   0  0  0  0  0  0  0  0  0  0  0  0
    3.5836    1.6290   -2.1654 H   0  0  0  0  0  0  0  0  0  0  0  0
    4.2429    0.0361   -1.8180 H   0  0  0  0  0  0  0  0  0  0  0  0
    1.5562    1.1215   -0.8348 H   0  0  0  0  0  0  0  0  0  0  0  0
    1.7648   -0.0766   -2.1054 H   0  0  0  0  0  0  0  0  0  0  0  0
    2.8340   -1.0876    1.9244 H   0  0  0  0  0  0  0  0  0  0  0  0
    2.1968    0.5150    1.5824 H   0  0  0  0  0  0  0  0  0  0  0  0
    4.6521    0.6195    1.8740 H   0  0  0  0  0  0  0  0  0  0  0  0
    4.8830   -0.5676    0.5960 H   0  0  0  0  0  0  0  0  0  0  0  0
    0.9980   -3.2996   -0.4363 H   0  0  0  0  0  0  0  0  0  0  0  0
   -1.3092   -3.9525    0.0239 H   0  0  0  0  0  0  0  0  0  0  0  0
   -3.0482   -4.2876    1.4541 H   0  0  0  0  0  0  0  0  0  0  0  0
   -3.5574   -3.9378   -0.2165 H   0  0  0  0  0  0  0  0  0  0  0  0
   -4.6769   -3.6529    1.1341 H   0  0  0  0  0  0  0  0  0  0  0  0
    0.0800    0.7118    0.8237 H   0  0  0  0  0  0  0  0  0  0  0  0
   -3.9356   -0.2093    0.1397 H   0  0  0  0  0  0  0  0  0  0  0  0
   -4.9746    1.1741    1.8729 H   0  0  0  0  0  0  0  0  0  0  0  0
   -3.7324    2.4151    1.6418 H   0  0  0  0  0  0  0  0  0  0  0  0
   -5.8014    1.5207   -0.4220 H   0  0  0  0  0  0  0  0  0  0  0  0
   -5.6034    3.1596    0.1775 H   0  0  0  0  0  0  0  0  0  0  0  0
   -4.3325    2.2962   -2.1233 H   0  0  0  0  0  0  0  0  0  0  0  0
   -3.5844    3.4707   -1.0641 H   0  0  0  0  0  0  0  0  0  0  0  0
   -2.5609    0.7966   -1.5630 H   0  0  0  0  0  0  0  0  0  0  0  0
   -1.9394    1.9790   -0.4209 H   0  0  0  0  0  0  0  0  0  0  0  0
  1  2  1  0  0  0  0
  2  4  1  0  0  0  0
  2  3  2  0  0  0  0
  4 27  1  1  0  0  0
  4  9  1  0  0  0  0
  5  6  1  0  0  0  0
  5  4  1  0  0  0  0
  6 30  1  0  0  0  0
  6  7  1  0  0  0  0
  7 10  1  6  0  0  0
  7 12  1  0  0  0  0
  7  8  1  0  0  0  0
  8 33  1  0  0  0  0
  8 32  1  0  0  0  0
  9  8  1  0  0  0  0
  9 34  1  0  0  0  0
 11 10  3  0  0  0  0
 12 19  1  0  0  0  0
 13 12  2  0  0  0  0
 13 14  1  0  0  0  0
 14 15  2  0  0  0  0
 15 18  1  0  0  0  0
 15 16  1  0  0  0  0
 17 16  1  0  0  0  0
 17 40  1  0  0  0  0
 17 38  1  0  0  0  0
 18 20  1  0  0  0  0
 19 41  1  0  0  0  0
 19 18  2  0  0  0  0
 21 22  1  0  0  0  0
 21 20  1  0  0  0  0
 22 44  1  0  0  0  0
 22 43  1  0  0  0  0
 23 46  1  0  0  0  0
 23 22  1  0  0  0  0
 24 48  1  0  0  0  0
 24 25  1  0  0  0  0
 24 23  1  0  0  0  0
 25 50  1  0  0  0  0
 25 21  1  0  0  0  0
 26  1  1  0  0  0  0
 28  5  1  0  0  0  0
 29  5  1  0  0  0  0
 31  6  1  0  0  0  0
 35  9  1  0  0  0  0
 36 13  1  0  0  0  0
 37 14  1  0  0  0  0
 39 17  1  0  0  0  0
 42 21  1  0  0  0  0
 45 23  1  0  0  0  0
 47 24  1  0  0  0  0
 49 25  1  0  0  0  0
M  END
