omegapdb_1m5f_13.xyz
 OpenBabel11041815263D

 25 25  0  0  1  0  0  0  0  0999 V2000
   -1.8571   -3.2103   -1.9596 O   0  0  0  0  0  0  0  0  0  0  0  0
   -1.0171   -2.6022   -1.1009 C   0  0  0  0  0  0  0  0  0  0  0  0
    0.0299   -3.0972   -0.7640 O   0  0  0  0  0  0  0  0  0  0  0  0
   -1.5003   -1.2878   -0.6042 C   0  0  0  0  0  0  0  0  0  0  0  0
   -2.7218   -0.8933   -0.9599 N   0  0  0  0  0  0  0  0  0  0  0  0
   -2.9206    0.3076   -0.3379 O   0  0  0  0  0  0  0  0  0  0  0  0
   -1.8210    0.6269    0.3878 C   0  0  0  0  0  0  0  0  0  0  0  0
   -0.8734   -0.3575    0.2570 C   0  0  0  0  0  0  0  0  0  0  0  0
    0.4984   -0.3810    0.8433 C   0  0  0  0  0  0  0  0  0  0  0  0
    1.4234    0.5720    0.0900 C   0  0  2  0  0  0  0  0  0  0  0  0
    1.5603    0.1501   -1.2976 N   0  0  0  0  0  0  0  0  0  0  0  0
    2.7847    0.5933    0.7525 C   0  0  0  0  0  0  0  0  0  0  0  0
    3.0329    0.1975    1.8662 O   0  0  0  0  0  0  0  0  0  0  0  0
    3.7095    1.1725   -0.0481 O   0  0  0  0  0  0  0  0  0  0  0  0
   -1.8674    1.9018    1.1408 C   0  0  0  0  0  0  0  0  0  0  0  0
   -2.6379   -2.6415   -2.0598 H   0  0  0  0  0  0  0  0  0  0  0  0
    0.4687   -0.0885    1.8922 H   0  0  0  0  0  0  0  0  0  0  0  0
    0.9039   -1.3875    0.7806 H   0  0  0  0  0  0  0  0  0  0  0  0
    1.0348    1.5969    0.2010 H   0  0  0  0  0  0  0  0  0  0  0  0
    2.1999    0.7649   -1.7848 H   0  0  0  0  0  0  0  0  0  0  0  0
    0.6625    0.2263   -1.7607 H   0  0  0  0  0  0  0  0  0  0  0  0
    4.5383    1.1554    0.4539 H   0  0  0  0  0  0  0  0  0  0  0  0
   -1.0433    1.9348    1.8496 H   0  0  0  0  0  0  0  0  0  0  0  0
   -1.7838    2.7588    0.4735 H   0  0  0  0  0  0  0  0  0  0  0  0
   -2.8035    1.9883    1.6891 H   0  0  0  0  0  0  0  0  0  0  0  0
  1  2  1  0  0  0  0
  2  3  2  0  0  0  0
  2  4  1  0  0  0  0
  4  8  1  0  0  0  0
  5  4  2  0  0  0  0
  5  6  1  0  0  0  0
  6  7  1  0  0  0  0
  7 15  1  0  0  0  0
  8  7  2  0  0  0  0
  8  9  1  0  0  0  0
  9 17  1  0  0  0  0
 10 19  1  1  0  0  0
 10 12  1  0  0  0  0
 10  9  1  0  0  0  0
 11 10  1  0  0  0  0
 12 13  2  0  0  0  0
 14 22  1  0  0  0  0
 14 12  1  0  0  0  0
 15 25  1  0  0  0  0
 15 23  1  0  0  0  0
 16  1  1  0  0  0  0
 18  9  1  0  0  0  0
 20 11  1  0  0  0  0
 21 11  1  0  0  0  0
 24 15  1  0  0  0  0
M  END
