omegacsd_DIAVER_04.xyz
 OpenBabel11041815263D

 35 36  0  0  0  0  0  0  0  0999 V2000
   -4.1938   -0.6367    1.5782 N   0  0  0  0  0  0  0  0  0  0  0  0
   -4.1807   -1.6247    0.6785 C   0  0  0  0  0  0  0  0  0  0  0  0
   -3.3594   -1.7484   -0.3739 N   0  0  0  0  0  0  0  0  0  0  0  0
   -2.4588   -0.7811   -0.5427 C   0  0  0  0  0  0  0  0  0  0  0  0
   -2.3700    0.3217    0.3291 C   0  0  0  0  0  0  0  0  0  0  0  0
   -3.2763    0.3177    1.3743 C   0  0  0  0  0  0  0  0  0  0  0  0
   -1.3729    1.4177    0.1141 C   0  0  0  0  0  0  0  0  0  0  0  0
    0.0598    0.9340    0.1709 C   0  0  0  0  0  0  0  0  0  0  0  0
    0.9986    1.4004   -0.7616 C   0  0  0  0  0  0  0  0  0  0  0  0
    2.3234    0.9737   -0.7272 C   0  0  0  0  0  0  0  0  0  0  0  0
    2.7314    0.0513    0.2624 C   0  0  0  0  0  0  0  0  0  0  0  0
    1.7978   -0.4136    1.1846 C   0  0  0  0  0  0  0  0  0  0  0  0
    0.4709    0.0231    1.1357 C   0  0  0  0  0  0  0  0  0  0  0  0
    4.0368   -0.3127    0.2174 O   0  0  0  0  0  0  0  0  0  0  0  0
    4.4573   -1.2375    1.2058 C   0  0  0  0  0  0  0  0  0  0  0  0
    3.2929    1.3703   -1.5894 O   0  0  0  0  0  0  0  0  0  0  0  0
    2.8991    2.3009   -2.5828 C   0  0  0  0  0  0  0  0  0  0  0  0
   -1.6474   -0.8695   -1.6496 N   0  0  0  0  0  0  0  0  0  0  0  0
   -5.0691   -2.6560    0.8783 N   0  0  0  0  0  0  0  0  0  0  0  0
   -3.2713    1.1355    2.0882 H   0  0  0  0  0  0  0  0  0  0  0  0
   -1.5344    2.1910    0.8693 H   0  0  0  0  0  0  0  0  0  0  0  0
   -1.5456    1.8862   -0.8591 H   0  0  0  0  0  0  0  0  0  0  0  0
    0.6765    2.1062   -1.5143 H   0  0  0  0  0  0  0  0  0  0  0  0
    2.0918   -1.1220    1.9436 H   0  0  0  0  0  0  0  0  0  0  0  0
   -0.2437   -0.3598    1.8528 H   0  0  0  0  0  0  0  0  0  0  0  0
    4.3242   -0.8319    2.2101 H   0  0  0  0  0  0  0  0  0  0  0  0
    3.9150   -2.1808    1.1225 H   0  0  0  0  0  0  0  0  0  0  0  0
    5.5121   -1.4087    1.0211 H   0  0  0  0  0  0  0  0  0  0  0  0
    2.1256    1.8859   -3.2316 H   0  0  0  0  0  0  0  0  0  0  0  0
    3.7897    2.5048   -3.1670 H   0  0  0  0  0  0  0  0  0  0  0  0
    2.5361    3.2281   -2.1360 H   0  0  0  0  0  0  0  0  0  0  0  0
   -0.7252   -0.4726   -1.5403 H   0  0  0  0  0  0  0  0  0  0  0  0
   -1.6552   -1.7875   -2.0671 H   0  0  0  0  0  0  0  0  0  0  0  0
   -5.8572   -2.4125    1.4533 H   0  0  0  0  0  0  0  0  0  0  0  0
   -5.2779   -3.1924    0.0541 H   0  0  0  0  0  0  0  0  0  0  0  0
  2 19  1  0  0  0  0
  2  1  2  0  0  0  0
  3  2  1  0  0  0  0
  4  3  2  0  0  0  0
  4  5  1  0  0  0  0
  5  6  2  0  0  0  0
  6  1  1  0  0  0  0
  6 20  1  0  0  0  0
  7  8  1  0  0  0  0
  7  5  1  0  0  0  0
  7 21  1  0  0  0  0
  8 13  2  0  0  0  0
  9 10  2  0  0  0  0
  9  8  1  0  0  0  0
 10 11  1  0  0  0  0
 11 12  2  0  0  0  0
 12 24  1  0  0  0  0
 13 12  1  0  0  0  0
 13 25  1  0  0  0  0
 14 11  1  0  0  0  0
 14 15  1  0  0  0  0
 15 26  1  0  0  0  0
 16 10  1  0  0  0  0
 17 31  1  0  0  0  0
 17 16  1  0  0  0  0
 18 32  1  0  0  0  0
 18  4  1  0  0  0  0
 19 34  1  0  0  0  0
 22  7  1  0  0  0  0
 23  9  1  0  0  0  0
 27 15  1  0  0  0  0
 28 15  1  0  0  0  0
 29 17  1  0  0  0  0
 30 17  1  0  0  0  0
 33 18  1  0  0  0  0
 35 19  1  0  0  0  0
M  END
