omegacsd_FIBREN_19.xyz
 OpenBabel11041815263D

 39 41  0  0  1  0  0  0  0  0999 V2000
   -2.6814    1.3360   -1.3213 N   0  0  0  0  0  0  0  0  0  0  0  0
   -1.4092    1.0147   -1.6029 C   0  0  0  0  0  0  0  0  0  0  0  0
   -0.5784    0.2792   -0.8320 N   0  0  0  0  0  0  0  0  0  0  0  0
   -1.0144   -0.2273    0.3206 C   0  0  0  0  0  0  0  0  0  0  0  0
   -2.3319    0.0446    0.7129 C   0  0  0  0  0  0  0  0  0  0  0  0
   -3.0628    0.8246   -0.1628 C   0  0  0  0  0  0  0  0  0  0  0  0
   -4.3098    0.9770    0.3828 O   0  0  0  0  0  0  0  0  0  0  0  0
   -4.2466    0.2722    1.5561 C   0  0  0  0  0  0  0  0  0  0  0  0
   -3.1016   -0.3044    1.8095 N   0  0  0  0  0  0  0  0  0  0  0  0
   -5.4735    0.2523    2.3809 C   0  0  0  0  0  0  0  0  0  0  0  0
   -0.1650   -0.9668    1.0788 N   0  0  0  0  0  0  0  0  0  0  0  0
    1.1098   -1.4751    0.6062 C   0  0  1  0  0  0  0  0  0  0  0  0
    1.0181   -2.2217   -0.7458 C   0  0  0  0  0  0  0  0  0  0  0  0
    0.9727   -1.4795   -2.0734 C   0  0  0  0  0  0  0  0  0  0  0  0
    0.2110   -1.7982   -2.9539 O   0  0  0  0  0  0  0  0  0  0  0  0
    1.9305   -0.5564   -2.3036 O   0  0  0  0  0  0  0  0  0  0  0  0
    2.2272   -0.4491    0.6576 C   0  0  0  0  0  0  0  0  0  0  0  0
    3.5469   -0.8798    0.4631 C   0  0  0  0  0  0  0  0  0  0  0  0
    4.6049    0.0257    0.4919 C   0  0  0  0  0  0  0  0  0  0  0  0
    4.3569    1.3777    0.7213 C   0  0  0  0  0  0  0  0  0  0  0  0
    3.0496    1.8113    0.9301 C   0  0  0  0  0  0  0  0  0  0  0  0
    1.9911    0.9052    0.9003 C   0  0  0  0  0  0  0  0  0  0  0  0
   -0.8344    1.4901   -2.8968 C   0  0  0  0  0  0  0  0  0  0  0  0
   -5.7599    1.2643    2.6613 H   0  0  0  0  0  0  0  0  0  0  0  0
   -5.2857   -0.3332    3.2746 H   0  0  0  0  0  0  0  0  0  0  0  0
   -6.2987   -0.1875    1.8237 H   0  0  0  0  0  0  0  0  0  0  0  0
   -0.5704   -1.3983    1.8930 H   0  0  0  0  0  0  0  0  0  0  0  0
    1.3745   -2.2476    1.3315 H   0  0  0  0  0  0  0  0  0  0  0  0
    0.1377   -2.8609   -0.7260 H   0  0  0  0  0  0  0  0  0  0  0  0
    1.8887   -2.8801   -0.8117 H   0  0  0  0  0  0  0  0  0  0  0  0
    2.3722   -0.3398   -1.4687 H   0  0  0  0  0  0  0  0  0  0  0  0
    3.7505   -1.9300    0.2906 H   0  0  0  0  0  0  0  0  0  0  0  0
    5.6161   -0.3250    0.3386 H   0  0  0  0  0  0  0  0  0  0  0  0
    5.1748    2.0843    0.7406 H   0  0  0  0  0  0  0  0  0  0  0  0
    2.8495    2.8581    1.1133 H   0  0  0  0  0  0  0  0  0  0  0  0
    0.9807    1.2484    1.0643 H   0  0  0  0  0  0  0  0  0  0  0  0
   -0.5443    0.6307   -3.5010 H   0  0  0  0  0  0  0  0  0  0  0  0
    0.0682    2.0715   -2.7149 H   0  0  0  0  0  0  0  0  0  0  0  0
   -1.5633    2.0931   -3.4286 H   0  0  0  0  0  0  0  0  0  0  0  0
  1  6  1  0  0  0  0
  2  1  2  0  0  0  0
  2  3  1  0  0  0  0
  3  4  2  0  0  0  0
  4  5  1  0  0  0  0
  4 11  1  0  0  0  0
  5  9  1  0  0  0  0
  6  7  1  0  0  0  0
  6  5  2  0  0  0  0
  7  8  1  0  0  0  0
  8  9  2  0  0  0  0
  8 10  1  0  0  0  0
 10 24  1  0  0  0  0
 10 25  1  0  0  0  0
 11 27  1  0  0  0  0
 12 17  1  0  0  0  0
 12 11  1  0  0  0  0
 12 28  1  1  0  0  0
 13 29  1  0  0  0  0
 13 12  1  0  0  0  0
 14 13  1  0  0  0  0
 15 14  2  0  0  0  0
 16 14  1  0  0  0  0
 16 31  1  0  0  0  0
 17 22  2  0  0  0  0
 18 19  2  0  0  0  0
 18 17  1  0  0  0  0
 19 20  1  0  0  0  0
 20 34  1  0  0  0  0
 20 21  2  0  0  0  0
 21 35  1  0  0  0  0
 22 21  1  0  0  0  0
 22 36  1  0  0  0  0
 23 38  1  0  0  0  0
 23  2  1  0  0  0  0
 26 10  1  0  0  0  0
 30 13  1  0  0  0  0
 32 18  1  0  0  0  0
 33 19  1  0  0  0  0
 37 23  1  0  0  0  0
 39 23  1  0  0  0  0
M  END
