omegacsd_SEYMIS_02.xyz
 OpenBabel11041815263D

 45 47  0  0  0  0  0  0  0  0999 V2000
   -4.5970   -1.3187    1.6568 O   0  0  0  0  0  0  0  0  0  0  0  0
   -5.0311   -1.0328    0.3812 N   0  0  0  0  0  0  0  0  0  0  0  0
   -4.0744   -0.3058   -0.1867 C   0  0  0  0  0  0  0  0  0  0  0  0
   -2.9895   -0.1168    0.7190 C   0  0  0  0  0  0  0  0  0  0  0  0
   -1.7121    0.6180    0.5438 C   0  0  0  0  0  0  0  0  0  0  0  0
   -1.6412    1.8145    0.2845 O   0  0  0  0  0  0  0  0  0  0  0  0
   -0.6167   -0.1720    0.7361 N   0  0  0  0  0  0  0  0  0  0  0  0
    0.7096    0.2610    0.6751 C   0  0  0  0  0  0  0  0  0  0  0  0
    1.1682    1.5546    0.4196 C   0  0  0  0  0  0  0  0  0  0  0  0
    2.5315    1.5254    0.4608 N   0  0  0  0  0  0  0  0  0  0  0  0
    3.3628    2.6991    0.2413 C   0  0  0  0  0  0  0  0  0  0  0  0
    2.9558    0.2504    0.7344 C   0  0  0  0  0  0  0  0  0  0  0  0
    1.8286   -0.5611    0.8741 C   0  0  0  0  0  0  0  0  0  0  0  0
    4.3640   -0.0967    0.8438 C   0  0  0  0  0  0  0  0  0  0  0  0
    5.2968    0.6772    0.7136 O   0  0  0  0  0  0  0  0  0  0  0  0
    4.5079   -1.4116    1.1181 O   0  0  0  0  0  0  0  0  0  0  0  0
    5.8738   -1.8619    1.2197 C   0  0  0  0  0  0  0  0  0  0  0  0
    6.4554   -2.1429   -0.1475 C   0  0  0  0  0  0  0  0  0  0  0  0
   -3.3773   -0.7765    1.8540 C   0  0  0  0  0  0  0  0  0  0  0  0
   -2.7661   -0.9682    3.1915 C   0  0  0  0  0  0  0  0  0  0  0  0
   -4.2357    0.1178   -1.5808 C   0  0  0  0  0  0  0  0  0  0  0  0
   -3.7076    1.3323   -2.0335 C   0  0  0  0  0  0  0  0  0  0  0  0
   -3.8882    1.7129   -3.3607 C   0  0  0  0  0  0  0  0  0  0  0  0
   -4.5937    0.8960   -4.2417 C   0  0  0  0  0  0  0  0  0  0  0  0
   -5.1229   -0.3120   -3.7892 C   0  0  0  0  0  0  0  0  0  0  0  0
   -4.9442   -0.7034   -2.4670 C   0  0  0  0  0  0  0  0  0  0  0  0
   -0.7765   -1.1590    0.8533 H   0  0  0  0  0  0  0  0  0  0  0  0
    0.6253    2.4570    0.2151 H   0  0  0  0  0  0  0  0  0  0  0  0
    4.0326    2.5360   -0.5969 H   0  0  0  0  0  0  0  0  0  0  0  0
    3.9599    2.9105    1.1228 H   0  0  0  0  0  0  0  0  0  0  0  0
    2.6985    3.5320    0.0320 H   0  0  0  0  0  0  0  0  0  0  0  0
    1.8488   -1.6154    1.0908 H   0  0  0  0  0  0  0  0  0  0  0  0
    6.4550   -1.1108    1.7492 H   0  0  0  0  0  0  0  0  0  0  0  0
    5.8137   -2.7653    1.8201 H   0  0  0  0  0  0  0  0  0  0  0  0
    7.4603   -2.5505   -0.0444 H   0  0  0  0  0  0  0  0  0  0  0  0
    5.8427   -2.8672   -0.6799 H   0  0  0  0  0  0  0  0  0  0  0  0
    6.5136   -1.2278   -0.7307 H   0  0  0  0  0  0  0  0  0  0  0  0
   -2.5526   -2.0201    3.3785 H   0  0  0  0  0  0  0  0  0  0  0  0
   -1.8385   -0.4053    3.2566 H   0  0  0  0  0  0  0  0  0  0  0  0
   -3.4427   -0.6197    3.9698 H   0  0  0  0  0  0  0  0  0  0  0  0
   -3.1718    1.9698   -1.3453 H   0  0  0  0  0  0  0  0  0  0  0  0
   -3.4805    2.6539   -3.7041 H   0  0  0  0  0  0  0  0  0  0  0  0
   -4.7298    1.1967   -5.2715 H   0  0  0  0  0  0  0  0  0  0  0  0
   -5.6697   -0.9524   -4.4679 H   0  0  0  0  0  0  0  0  0  0  0  0
   -5.3452   -1.6412   -2.1084 H   0  0  0  0  0  0  0  0  0  0  0  0
  1 19  1  0  0  0  0
  2  1  1  0  0  0  0
  3  2  2  0  0  0  0
  3  4  1  0  0  0  0
  4 19  2  0  0  0  0
  5  4  1  0  0  0  0
  5  7  1  0  0  0  0
  6  5  2  0  0  0  0
  7 27  1  0  0  0  0
  8  7  1  0  0  0  0
  8 13  1  0  0  0  0
  9 10  1  0  0  0  0
  9  8  2  0  0  0  0
 10 12  1  0  0  0  0
 11 10  1  0  0  0  0
 11 30  1  0  0  0  0
 12 14  1  0  0  0  0
 12 13  2  0  0  0  0
 13 32  1  0  0  0  0
 14 16  1  0  0  0  0
 15 14  2  0  0  0  0
 16 17  1  0  0  0  0
 17 33  1  0  0  0  0
 17 34  1  0  0  0  0
 18 35  1  0  0  0  0
 18 17  1  0  0  0  0
 19 20  1  0  0  0  0
 20 39  1  0  0  0  0
 20 38  1  0  0  0  0
 20 40  1  0  0  0  0
 21  3  1  0  0  0  0
 22 21  1  0  0  0  0
 22 41  1  0  0  0  0
 23 22  2  0  0  0  0
 24 25  2  0  0  0  0
 24 23  1  0  0  0  0
 25 26  1  0  0  0  0
 26 45  1  0  0  0  0
 26 21  2  0  0  0  0
 28  9  1  0  0  0  0
 29 11  1  0  0  0  0
 31 11  1  0  0  0  0
 36 18  1  0  0  0  0
 37 18  1  0  0  0  0
 42 23  1  0  0  0  0
 43 24  1  0  0  0  0
 44 25  1  0  0  0  0
M  END
