omegacsd_FIBREN_00.xyz
 OpenBabel11041815263D

 39 41  0  0  1  0  0  0  0  0999 V2000
   -2.7855   -2.2025   -0.4484 N   0  0  0  0  0  0  0  0  0  0  0  0
   -1.6503   -2.1288   -1.1614 C   0  0  0  0  0  0  0  0  0  0  0  0
   -0.8209   -1.0695   -1.2637 N   0  0  0  0  0  0  0  0  0  0  0  0
   -1.1134    0.0612   -0.6106 C   0  0  0  0  0  0  0  0  0  0  0  0
   -2.2794    0.0963    0.1673 C   0  0  0  0  0  0  0  0  0  0  0  0
   -3.0293   -1.0642    0.1793 C   0  0  0  0  0  0  0  0  0  0  0  0
   -4.1052   -0.8415    0.9969 O   0  0  0  0  0  0  0  0  0  0  0  0
   -3.9283    0.4480    1.4281 C   0  0  0  0  0  0  0  0  0  0  0  0
   -2.8659    1.0571    0.9743 N   0  0  0  0  0  0  0  0  0  0  0  0
   -4.9561    0.9839    2.3462 C   0  0  0  0  0  0  0  0  0  0  0  0
   -0.2881    1.1331   -0.7340 N   0  0  0  0  0  0  0  0  0  0  0  0
    1.0528    0.9352   -1.2443 C   0  0  1  0  0  0  0  0  0  0  0  0
    1.7219    2.3011   -1.4478 C   0  0  0  0  0  0  0  0  0  0  0  0
    1.9192    3.0106   -0.1367 C   0  0  0  0  0  0  0  0  0  0  0  0
    1.0330    3.2527    0.6579 O   0  0  0  0  0  0  0  0  0  0  0  0
    3.2017    3.3567    0.0774 O   0  0  0  0  0  0  0  0  0  0  0  0
    1.9101    0.0484   -0.3648 C   0  0  0  0  0  0  0  0  0  0  0  0
    1.7112   -0.0199    1.0155 C   0  0  0  0  0  0  0  0  0  0  0  0
    2.5451   -0.8065    1.8081 C   0  0  0  0  0  0  0  0  0  0  0  0
    3.5850   -1.5308    1.2291 C   0  0  0  0  0  0  0  0  0  0  0  0
    3.7856   -1.4702   -0.1492 C   0  0  0  0  0  0  0  0  0  0  0  0
    2.9502   -0.6848   -0.9387 C   0  0  0  0  0  0  0  0  0  0  0  0
   -1.2463   -3.3467   -1.9320 C   0  0  0  0  0  0  0  0  0  0  0  0
   -4.6911    2.0021    2.6110 H   0  0  0  0  0  0  0  0  0  0  0  0
   -5.0162    0.3763    3.2474 H   0  0  0  0  0  0  0  0  0  0  0  0
   -5.9346    0.9745    1.8693 H   0  0  0  0  0  0  0  0  0  0  0  0
   -0.4126    1.8840   -0.0662 H   0  0  0  0  0  0  0  0  0  0  0  0
    0.9686    0.4556   -2.2197 H   0  0  0  0  0  0  0  0  0  0  0  0
    1.0792    2.9229   -2.0727 H   0  0  0  0  0  0  0  0  0  0  0  0
    2.6807    2.1670   -1.9406 H   0  0  0  0  0  0  0  0  0  0  0  0
    3.2149    3.7912    0.9449 H   0  0  0  0  0  0  0  0  0  0  0  0
    0.8987    0.5322    1.4700 H   0  0  0  0  0  0  0  0  0  0  0  0
    2.3783   -0.8575    2.8755 H   0  0  0  0  0  0  0  0  0  0  0  0
    4.2275   -2.1451    1.8446 H   0  0  0  0  0  0  0  0  0  0  0  0
    4.5827   -2.0398   -0.6074 H   0  0  0  0  0  0  0  0  0  0  0  0
    3.0949   -0.6518   -2.0123 H   0  0  0  0  0  0  0  0  0  0  0  0
   -1.9053   -4.1754   -1.6932 H   0  0  0  0  0  0  0  0  0  0  0  0
   -0.2165   -3.6097   -1.6979 H   0  0  0  0  0  0  0  0  0  0  0  0
   -1.2961   -3.1452   -3.0017 H   0  0  0  0  0  0  0  0  0  0  0  0
  1  6  2  0  0  0  0
  2  1  1  0  0  0  0
  3  2  2  0  0  0  0
  3  4  1  0  0  0  0
  4  5  2  0  0  0  0
  5  6  1  0  0  0  0
  5  9  1  0  0  0  0
  6  7  1  0  0  0  0
  7  8  1  0  0  0  0
  8 10  1  0  0  0  0
  9  8  2  0  0  0  0
 10 24  1  0  0  0  0
 10 25  1  0  0  0  0
 11  4  1  0  0  0  0
 11 27  1  0  0  0  0
 12 28  1  6  0  0  0
 12 11  1  0  0  0  0
 12 17  1  0  0  0  0
 13 12  1  0  0  0  0
 13 14  1  0  0  0  0
 14 16  1  0  0  0  0
 14 15  2  0  0  0  0
 16 31  1  0  0  0  0
 17 18  1  0  0  0  0
 18 32  1  0  0  0  0
 18 19  2  0  0  0  0
 19 33  1  0  0  0  0
 20 19  1  0  0  0  0
 20 34  1  0  0  0  0
 21 20  2  0  0  0  0
 22 17  2  0  0  0  0
 22 21  1  0  0  0  0
 23 38  1  0  0  0  0
 23 37  1  0  0  0  0
 23  2  1  0  0  0  0
 26 10  1  0  0  0  0
 29 13  1  0  0  0  0
 30 13  1  0  0  0  0
 35 21  1  0  0  0  0
 36 22  1  0  0  0  0
 39 23  1  0  0  0  0
M  END
