43
27.045
C         -3.69392        2.31742        1.05540
O         -3.81523        2.56890        2.24238
C         -2.83241        1.29114        0.48907
C         -2.95633        1.31196       -0.88972
C         -3.92837        2.37408       -1.24634
O         -4.32546        2.93199        0.02520
C         -2.20556        0.42479       -1.65622
C         -2.23009        0.43636       -3.16186
C         -1.38387       -0.49809       -0.95341
C         -1.22868       -0.48532        0.45577
C         -1.98761        0.43304        1.18093
O         -1.88965        0.49058        2.54139
C         -0.22725       -1.39396        1.13442
C          1.13539       -0.77182        1.25976
C          2.24775       -1.11896        0.57471
C          3.58576       -0.43169        0.77386
C          3.63249        0.73900        1.76300
C          5.01192        1.30079        1.87840
O          6.02219        0.91442        1.29015
O          5.06667        2.33776        2.73990
C          2.28818       -2.19573       -0.48453
O         -0.62841       -1.39411       -1.66732
C         -1.37920       -2.56832       -1.98125
H         -4.83386        1.99753       -1.72482
H         -3.49747        3.18700       -1.83180
H         -3.21389        0.15316       -3.54559
H         -1.98722        1.43025       -3.54627
H         -1.49109       -0.26048       -3.58016
H         -2.50207        1.19273        2.85278
H         -0.58860       -1.64772        2.13818
H         -0.16938       -2.34678        0.60120
H          1.18372        0.04476        1.97740
H          3.93587       -0.08708       -0.20852
H          4.30701       -1.19653        1.09333
H          3.32021        0.41277        2.76154
H          2.96735        1.54698        1.43816
H          6.00023        2.63303        2.74751
H          2.25341       -1.74356       -1.48080
H          1.47434       -2.92096       -0.41435
H          3.22506       -2.75738       -0.41189
H         -2.27310       -2.33870       -2.57071
H         -0.71187       -3.19705       -2.57794
H         -1.67692       -3.11619       -1.08095
