43
38.4521
C         -3.25294        2.41079        1.05212
O         -2.82986        2.81929        2.10707
C         -2.68914        1.28181        0.31219
C         -3.40564        1.09186       -0.85748
C         -4.47762        2.11567       -0.90580
O         -4.28978        2.87700        0.31182
C         -3.05478        0.05936       -1.72812
C         -3.82087       -0.20567       -2.99431
C         -1.92678       -0.72911       -1.37371
C         -1.19650       -0.52882       -0.17361
C         -1.61048        0.49928        0.67912
O         -0.94406        0.71168        1.85205
C          0.00827       -1.37540        0.18233
C          1.30885       -0.60870        0.10814
C          2.22134       -0.45010        1.09222
C          3.48910        0.34539        0.83525
C          4.77368       -0.44134        1.09175
C          5.19255       -0.40493        2.54249
O          5.14531       -1.36837        3.29527
O          5.65740        0.78893        2.96579
C          2.07546       -0.99239        2.49021
O         -1.59937       -1.80210       -2.16677
C         -0.68110       -1.43280       -3.19613
H         -5.48420        1.69155       -0.87442
H         -4.37206        2.80989       -1.74351
H         -3.69075        0.61316       -3.71003
H         -4.88878       -0.32923       -2.78977
H         -3.48672       -1.12526       -3.48757
H         -1.34760        1.48160        2.30378
H          0.07859       -2.23516       -0.49387
H         -0.14566       -1.81057        1.17293
H          1.50722       -0.14039       -0.85438
H          3.49282        0.68331       -0.20890
H          3.46721        1.25385        1.45035
H          4.65970       -1.49222        0.79483
H          5.60252       -0.04091        0.49501
H          5.67991        1.47675        2.26673
H          2.78809       -1.80705        2.63989
H          1.08718       -1.39103        2.72067
H          2.28050       -0.20876        3.22846
H         -1.04627       -0.59278       -3.79621
H          0.30489       -1.19361       -2.78755
H         -0.57961       -2.30445       -3.84831
