22
34.5706
O          2.12051       -1.87690       -1.20293
C          1.91682       -0.70136       -0.89581
O          2.38540        0.30430       -1.63165
C          1.13779       -0.33632        0.36159
O          1.09356       -1.52338        1.18612
C         -0.29690        0.15859        0.11681
C         -1.15828       -0.96756       -0.47757
C         -0.31987        1.37108       -0.82169
C         -0.86691        0.59554        1.48298
O         -2.24333        0.94582        1.41354
H          2.13626        1.18141       -1.27425
H          1.70793        0.40757        0.93033
H          1.35002       -2.26639        0.59038
H         -0.71141       -1.37237       -1.39209
H         -2.16246       -0.61422       -0.73814
H         -1.26356       -1.79432        0.23507
H         -1.31579        1.82282       -0.84426
H          0.38381        2.14869       -0.49496
H         -0.06721        1.08974       -1.85118
H         -0.34434        1.48890        1.84012
H         -0.73824       -0.19275        2.23027
H         -2.74381        0.13111        1.23732
