22
27.9125
O          2.10300        1.58600        0.70728
C          2.12713        0.56803        0.03077
O          3.13676        0.29068       -0.83119
C          1.07154       -0.55415        0.05821
O          1.34165       -1.40659       -1.07080
C         -0.40006       -0.05142        0.07601
C         -1.37393       -1.22693       -0.16987
C         -0.63972        0.99201       -1.03143
C         -0.70500        0.54423        1.47384
O         -2.04142        1.02451        1.57093
H          2.89625       -0.54501       -1.30090
H          1.28063       -1.15301        0.95579
H          0.91459       -2.26606       -0.88693
H         -2.41586       -0.92435       -0.02471
H         -1.29136       -1.62082       -1.19045
H         -1.17254       -2.04787        0.52513
H         -0.09276        1.92069       -0.84258
H         -1.70395        1.25516       -1.11413
H         -0.32439        0.60886       -2.00829
H         -0.58853       -0.23043        2.24074
H         -0.03794        1.36695        1.74314
H         -2.08408        1.86949        1.08942
