22
24.1192
O          2.00305        1.03304        1.51037
C          1.90785        0.45042        0.42610
O          2.71984        0.70674       -0.60992
C          0.84748       -0.61009        0.13341
O          1.24490       -1.35257       -1.03129
C         -0.55167       -0.00989       -0.08763
C         -1.56573       -1.17226       -0.13431
C         -0.62395        0.77655       -1.40469
C         -0.93535        0.92724        1.06477
O         -0.62158        0.35815        2.33048
H          2.45664        0.10634       -1.34625
H          0.81729       -1.28706        0.99549
H          1.85771       -2.05129       -0.73781
H         -1.28629       -1.92456       -0.88164
H         -2.57294       -0.81444       -0.38371
H         -1.62495       -1.67386        0.83915
H          0.12188        1.57934       -1.43001
H         -0.44901        0.13123       -2.27263
H         -1.61069        1.24098       -1.52402
H         -2.01410        1.10854        1.05227
H         -0.43056        1.89248        0.96890
H          0.31018        0.58498        2.52296
