22
27.7295
O          2.80795        1.03374        0.52701
C          2.24051        0.22893       -0.19395
O          2.64166       -0.04516       -1.46170
C          1.01732       -0.61057        0.20528
O          0.96780       -1.75636       -0.66923
C         -0.32049        0.16753        0.13548
C         -0.24961        1.43007        1.01689
C         -0.66044        0.57793       -1.31330
C         -1.44782       -0.74973        0.66550
O         -2.69575       -0.06617        0.65605
H          2.03220       -0.71883       -1.84265
H          1.19581       -0.98923        1.21951
H          1.59026       -2.41536       -0.30406
H          0.06320        1.17386        2.03566
H          0.46059        2.16138        0.61831
H         -1.21810        1.93644        1.08398
H          0.11630        1.21918       -1.74122
H         -0.76669       -0.29896       -1.96218
H         -1.60257        1.13482       -1.36135
H         -1.55488       -1.64983        0.05073
H         -1.24126       -1.06137        1.69579
H         -3.37598       -0.70232        0.93944
