43
34.8008
C         -3.15805        2.44208        1.24642
O         -3.34908        2.62326        2.43116
C         -2.39462        1.34201        0.68441
C         -2.39045        1.45383       -0.68968
C         -3.17757        2.65040       -1.06846
O         -3.61130        3.18943        0.20000
C         -1.70194        0.53054       -1.47028
C         -1.64294        0.69135       -2.96179
C         -1.06737       -0.53831       -0.79462
C         -1.05520       -0.64758        0.62224
C         -1.73786        0.32916        1.36297
O         -1.72696        0.27762        2.72821
C         -0.25406       -1.72880        1.32786
C          1.09182       -1.20893        1.76312
C          2.26680       -1.29705        1.10568
C          3.45931       -0.49425        1.59456
C          3.85684        0.63829        0.64703
C          2.99295        1.88155        0.66746
O          3.47423        3.00932        0.67478
O          1.66663        1.69989        0.57397
C          2.48191       -2.08555       -0.15903
O         -0.35341       -1.45349       -1.53121
C         -1.20416       -2.51815       -1.96422
H         -4.06433        2.39372       -1.65660
H         -2.57615        3.40628       -1.58079
H         -2.63789        0.54871       -3.39566
H         -0.96510       -0.02510       -3.43444
H         -1.27585        1.69022       -3.22147
H         -2.22335        1.04925        3.08034
H         -0.80386       -2.08114        2.20966
H         -0.15736       -2.61718        0.69827
H          1.04657       -0.61957        2.68196
H          3.27105       -0.08310        2.59336
H          4.30861       -1.18133        1.70520
H          3.94923        0.29930       -0.38989
H          4.85725        0.97219        0.95795
H          1.38124        0.76980        0.49844
H          3.47321       -2.55177       -0.15559
H          2.41733       -1.43022       -1.03264
H          1.75874       -2.89636       -0.27969
H         -1.64347       -3.04941       -1.11362
H         -1.99437       -2.15524       -2.62944
H         -0.58702       -3.22568       -2.52593
