43
26.5468
C         -4.05888        2.42390        1.03248
O         -3.99459        2.86944        2.16448
C         -3.21055        1.37638        0.48458
C         -3.57854        1.13684       -0.83051
C         -4.70251        2.04900       -1.15974
O         -4.92090        2.79898        0.05603
C         -2.89955        0.16189       -1.55877
C         -3.21976       -0.18885       -2.98835
C         -1.82876       -0.50209       -0.89876
C         -1.48598       -0.28002        0.45741
C         -2.19509        0.70051        1.14914
O         -1.88963        0.99313        2.44679
C         -0.35410       -1.05111        1.10111
C          0.96931       -0.33696        1.02798
C          2.14614       -0.84349        0.59864
C          3.40207        0.00472        0.65705
C          4.37392       -0.44418        1.75072
C          5.62960        0.36833        1.74063
O          5.91705        1.28259        0.96597
O          6.48742       -0.01083        2.71002
C          2.33035       -2.22567        0.02938
O         -1.13910       -1.47979       -1.57326
C         -0.06754       -0.92752       -2.33791
H         -5.63701        1.53453       -1.38653
H         -4.46714        2.77408       -1.93965
H         -4.29770       -0.20015       -3.16145
H         -2.76570        0.51695       -3.69055
H         -2.83650       -1.18953       -3.23707
H         -2.50319        1.70255        2.74079
H         -0.29382       -2.04623        0.64877
H         -0.59047       -1.22441        2.15723
H          0.95683        0.69050        1.38912
H          3.90225       -0.04018       -0.31893
H          3.13998        1.06035        0.81585
H          4.65606       -1.49241        1.61125
H          3.91454       -0.34409        2.73956
H          7.26939        0.57149        2.62234
H          2.98683       -2.81411        0.67345
H          1.40008       -2.78417       -0.08558
H          2.79641       -2.16671       -0.95942
H         -0.43020       -0.29996       -3.15748
H          0.62190       -0.34170       -1.72528
H          0.46709       -1.78199       -2.76152
