22
27.7447
O          2.37729        1.21882       -0.25361
C          2.12686        0.02131       -0.36612
O          3.09067       -0.85718       -0.73131
C          0.82133       -0.70977       -0.11091
O          0.54111       -1.55224       -1.23900
C         -0.40459        0.16355        0.15813
C         -0.20709        0.98259        1.43755
C         -0.69244        1.08450       -1.03696
C         -1.61137       -0.76933        0.35539
O         -2.74184        0.00521        0.74235
H          3.90328       -0.32373       -0.86822
H          0.99888       -1.34620        0.76632
H          1.35236       -2.06994       -1.39533
H         -0.00322        0.32438        2.29141
H          0.62644        1.68195        1.34356
H         -1.10213        1.56736        1.67209
H         -0.79123        0.50308       -1.96286
H          0.11169        1.81193       -1.18605
H         -1.62399        1.64168       -0.89144
H         -1.40197       -1.50965        1.13768
H         -1.84132       -1.30739       -0.57155
H         -3.52871       -0.56090        0.70887
