22
26.5254
O          1.89008       -2.39583       -0.06580
C          1.69405       -1.23907        0.27139
O          2.09748       -0.75456        1.46196
C          0.99523       -0.20696       -0.63457
O          1.73885        1.00923       -0.69834
C         -0.47327        0.10994       -0.25499
C         -1.21946       -1.18327        0.11223
C         -1.16448        0.73743       -1.48589
C         -0.56861        1.15548        0.87617
O          0.12981        0.74062        2.04441
H          1.71495        0.14204        1.62607
H          1.01156       -0.64530       -1.64085
H          2.61734        0.78474       -1.04528
H         -2.28291       -0.98906        0.30024
H         -1.15300       -1.91184       -0.70496
H         -0.81014       -1.65592        1.01089
H         -1.20244        0.03262       -2.32314
H         -0.62843        1.63102       -1.82659
H         -2.19201        1.03645       -1.25208
H         -0.12840        2.10796        0.55852
H         -1.61323        1.36509        1.13623
H         -0.45299        0.12918        2.53436
