43
39.1099
C         -3.90178        2.06254        1.19098
O         -3.92051        2.21913        2.39765
C         -2.97588        1.21038        0.45789
C         -3.26119        1.29698       -0.89385
C         -4.40523        2.22549       -1.06194
O         -4.72659        2.64009        0.28217
C         -2.49343        0.57607       -1.80218
C         -2.69947        0.67235       -3.29046
C         -1.47954       -0.25792       -1.26162
C         -1.15917       -0.31001        0.12063
C         -1.95047        0.44164        0.99271
O         -1.72667        0.43383        2.34018
C          0.02018       -1.13592        0.58241
C          1.34536       -0.56727        0.13715
C          2.33566       -0.17257        0.95874
C          3.67440        0.24778        0.39321
C          4.75880       -0.81782        0.55326
C          5.06533       -1.10792        1.99916
O          4.80952       -2.18039        2.55237
O          5.61980       -0.09655        2.67801
C          2.15457       -0.15638        2.45581
O         -0.68242       -0.97822       -2.11903
C         -1.27181       -2.23405       -2.45778
H         -5.29898        1.75092       -1.47067
H         -4.16152        3.12718       -1.62514
H         -1.92962        0.11417       -3.84112
H         -3.67542        0.27512       -3.58207
H         -2.64256        1.71183       -3.62362
H         -2.39541        1.02495        2.75399
H         -0.06923       -2.15102        0.16817
H          0.00079       -1.26725        1.66829
H          1.50206       -0.51598       -0.94116
H          3.56462        0.48128       -0.67781
H          3.99464        1.17520        0.87980
H          5.68914       -0.50547        0.05390
H          4.44743       -1.75564        0.06752
H          5.74778        0.68830        2.11243
H          1.19380        0.28673        2.74133
H          2.17888       -1.17614        2.85021
H          2.93754        0.42458        2.95190
H         -0.61270       -2.67902       -3.20919
H         -2.27116       -2.11644       -2.88736
H         -1.32953       -2.90455       -1.59489
