22
32.8721
O          1.98757       -0.47596       -2.16701
C          1.86914       -0.44707       -0.95202
O          2.86391       -0.03055       -0.14483
C          0.58596       -0.91977       -0.25182
O         -0.14073       -1.71749       -1.20170
C         -0.32252        0.22698        0.26597
C          0.41374        1.04395        1.34280
C         -0.75304        1.15808       -0.88685
C         -1.58494       -0.38143        0.92046
O         -2.48735       -0.93326       -0.02692
H          2.66188       -0.08945        0.80602
H          0.86713       -1.59576        0.56667
H          0.26181       -1.51859       -2.07957
H          1.23220        1.62994        0.91532
H         -0.26528        1.75196        1.82772
H          0.82385        0.38779        2.11750
H         -1.41729        1.94423       -0.51509
H          0.10582        1.64579       -1.35668
H         -1.29057        0.60797       -1.66558
H         -1.31227       -1.16387        1.63361
H         -2.13478        0.39160        1.46831
H         -1.96424       -1.51507       -0.61632
