43
34.7797
C         -1.48787        3.10259       -1.02575
O         -0.48809        3.80076       -0.99435
C         -1.51553        1.64868       -0.96780
C         -2.83050        1.22314       -1.01891
C         -3.69756        2.42013       -1.11847
O         -2.77220        3.52774       -1.11598
C         -3.11401       -0.13859       -0.97009
C         -4.52354       -0.66958       -1.00034
C         -2.00341       -1.02493       -0.89909
C         -0.65642       -0.58278       -0.80473
C         -0.42727        0.79388       -0.86644
O          0.84036        1.29013       -0.81795
C          0.48390       -1.56658       -0.63756
C          1.25801       -1.37243        0.63896
C          2.51388       -0.88885        0.75513
C          3.15924       -0.75682        2.12133
C          3.34660        0.70327        2.55161
C          4.10822        0.81816        3.84544
O          4.55942       -0.13722        4.47975
O          4.28057        2.07397        4.28248
C          3.36575       -0.41483       -0.39810
O         -2.25054       -2.37484       -0.82401
C         -2.29675       -2.96218       -2.12698
H         -4.25982        2.47638       -2.05113
H         -4.36029        2.55539       -0.26353
H         -4.54650       -1.75701       -0.84742
H         -5.12767       -0.21924       -0.20910
H         -5.00528       -0.45844       -1.95939
H          0.78009        2.26633       -0.84393
H          1.14469       -1.51563       -1.50806
H          0.09018       -2.59207       -0.63397
H          0.72032       -1.62232        1.55250
H          4.13509       -1.25978        2.09270
H          2.56655       -1.29335        2.87677
H          2.37011        1.18189        2.67423
H          3.90285        1.24680        1.78155
H          3.87953        2.73067        3.67983
H          3.03763       -0.77658       -1.37450
H          4.40204       -0.73636       -0.26093
H          3.36176        0.67898       -0.43430
H         -3.08830       -2.52375       -2.74384
H         -2.51750       -4.02198       -1.96754
H         -1.33777       -2.87275       -2.64810
