43
34.8148
C         -3.85176        2.79465        0.81740
O         -3.57496        3.67142        1.61700
C         -2.89404        1.98588        0.07996
C         -3.58179        1.09948       -0.73163
C         -5.03279        1.32756       -0.52861
O         -5.09198        2.39139        0.44584
C         -2.86806        0.21809       -1.53942
C         -3.53598       -0.74669       -2.48312
C         -1.45057        0.26053       -1.44060
C         -0.75225        1.20081       -0.64358
C         -1.51055        2.06980        0.14355
O         -0.89615        2.97049        0.96546
C          0.76092        1.22750       -0.62251
C          1.35418        0.43257        0.50998
C          2.32727       -0.50020        0.42928
C          2.84371       -1.16430        1.69039
C          4.25638       -0.72636        2.05814
C          4.73445       -1.45332        3.28703
O          4.54221       -1.03467        4.43001
O          5.34414       -2.62489        3.07808
C          2.95435       -0.97561       -0.85544
O         -0.70229       -0.59634       -2.21070
C         -0.50162       -1.84522       -1.54443
H         -5.55218        1.68211       -1.41955
H         -5.55533        0.47254       -0.09713
H         -4.08951       -1.51867       -1.94189
H         -2.79827       -1.24941       -3.12434
H         -4.23354       -0.22614       -3.14366
H         -1.60090        3.47820        1.42548
H          1.14058        0.88501       -1.59111
H          1.10249        2.26461       -0.52665
H          0.95582        0.67674        1.49509
H          2.82184       -2.25065        1.54805
H          2.17269       -0.95016        2.53244
H          4.95851       -0.89467        1.23117
H          4.27607        0.35502        2.26848
H          5.44748       -2.83111        2.12943
H          2.88559       -2.06536       -0.92824
H          4.01104       -0.70410       -0.88174
H          2.49016       -0.56314       -1.75210
H          0.14570       -2.43356       -2.20157
H         -1.44125       -2.38548       -1.39767
H         -0.00980       -1.72437       -0.57655
