22
28.7647
O          2.48524       -0.61841       -1.50307
C          2.03143       -0.08438       -0.48663
O          2.53355        1.05798        0.00024
C          0.87712       -0.64889        0.31610
O          0.80615       -2.05514        0.01176
C         -0.47680        0.01761        0.01938
C         -0.42232        1.52901        0.28579
C         -0.90939       -0.24397       -1.43259
C         -1.52764       -0.63217        0.93936
O         -1.29886       -0.33084        2.31093
H          3.25457        1.32915       -0.60556
H          1.11663       -0.56060        1.38028
H          1.29851       -2.17585       -0.82705
H          0.15387        2.04806       -0.48645
H         -1.42868        1.96408        0.29083
H          0.04566        1.74626        1.25403
H         -0.97652       -1.32123       -1.62304
H         -0.20545        0.18314       -2.15508
H         -1.89477        0.19360       -1.63209
H         -1.49156       -1.72066        0.84561
H         -2.53710       -0.29984        0.66940
H         -1.43364        0.62308        2.42785
