43
34.6948
C         -3.08610        3.05754        0.81798
O         -2.62957        3.80173        1.65712
C         -2.40111        2.02024        0.03664
C         -3.32388        1.40534       -0.79115
C         -4.64471        2.04062       -0.58813
O         -4.39842        3.03229        0.42294
C         -2.94661        0.36549       -1.63460
C         -3.94565       -0.31681       -2.52707
C         -1.58968       -0.02730       -1.60394
C         -0.62114        0.61562       -0.78688
C         -1.05931        1.64614        0.05992
O         -0.21849        2.30959        0.90883
C          0.84199        0.21556       -0.89120
C          1.40429       -0.29105        0.40981
C          2.50317        0.14869        1.05605
C          2.84157       -0.41027        2.42743
C          4.04516       -1.34852        2.43507
C          3.75073       -2.65948        1.75751
O          2.66189       -3.12244        1.46381
O          4.87687       -3.36943        1.54084
C          3.44651        1.20448        0.54013
O         -1.17789       -1.01438       -2.46986
C         -1.25463       -2.29564       -1.84261
H         -5.00985        2.54983       -1.48308
H         -5.39173        1.34007       -0.20511
H         -4.66920       -0.87790       -1.92710
H         -4.47827        0.41073       -3.14683
H         -3.46949       -1.02557       -3.21158
H          0.62682        1.84519        0.98308
H          0.98241       -0.57356       -1.63620
H          1.39629        1.07370       -1.27910
H          0.82314       -1.09754        0.86551
H          1.97121       -0.92796        2.85211
H          3.03461        0.43451        3.10239
H          4.31686       -1.57414        3.47236
H          4.90795       -0.88046        1.94960
H          4.56472       -4.20754        1.13971
H          3.52243        2.03358        1.25058
H          4.44214        0.77393        0.40049
H          3.15292        1.62958       -0.42153
H         -0.94840       -3.03328       -2.58877
H         -2.27618       -2.53095       -1.52615
H         -0.57335       -2.37022       -0.98902
