43
47.0009
C         -4.11234        2.35767        1.09904
O         -4.30446        2.65952        2.26449
C         -3.09580        1.43144        0.55730
C         -3.25328        1.39932       -0.82049
C         -4.37122        2.29261       -1.20218
O         -4.83519        2.82427        0.04396
C         -2.42218        0.61814       -1.61754
C         -2.54231        0.62488       -3.11643
C         -1.45925       -0.16993       -0.95270
C         -1.26743       -0.11702        0.45242
C         -2.10971        0.70805        1.21218
O         -1.98594        0.82611        2.56347
C         -0.14516       -0.90187        1.09322
C          1.06907       -0.05105        1.35612
C          2.27078       -0.23029        0.77474
C          3.46588        0.59010        1.20574
C          4.41512       -0.18048        2.12110
C          5.02120       -1.36359        1.42280
O          4.76289       -2.52776        1.69259
O          5.89073       -1.05286        0.43137
C          2.48771       -1.25758       -0.30778
O         -0.61421       -0.94847       -1.70233
C         -1.18718       -2.22996       -1.96903
H         -4.05227        3.13036       -1.82534
H         -5.20227        1.75747       -1.66688
H         -1.74664        0.04237       -3.59284
H         -2.46607        1.64409       -3.50876
H         -3.50067        0.20157       -3.43347
H         -1.21427        0.33668        2.88711
H         -0.49220       -1.34764        2.03550
H          0.11872       -1.77075        0.48377
H          0.95939        0.74003        2.09567
H          3.13133        1.49313        1.73417
H          4.00141        0.94185        0.31692
H          3.88361       -0.54739        3.00855
H          5.22150        0.46471        2.48385
H          6.00084       -0.08878        0.31909
H          2.51055       -2.26183        0.12451
H          1.69531       -1.22966       -1.05811
H          3.42399       -1.08985       -0.84595
H         -1.37700       -2.79233       -1.04835
H         -2.11565       -2.14501       -2.54203
H         -0.45731       -2.78026       -2.56947
