22
24.5399
O          1.96071        1.50635        0.24940
C          1.96010        0.29859        0.01400
O          3.12494       -0.36871       -0.16036
C          0.77731       -0.64277       -0.11310
O          0.91273       -1.39254       -1.33005
C         -0.60640        0.02142       -0.10886
C         -1.66743       -1.09883       -0.13392
C         -0.79274        0.90996       -1.34097
C         -0.80751        0.84470        1.16027
O         -0.38696        0.05844        2.27082
H          3.83447        0.30033       -0.05570
H          0.85184       -1.33532        0.73613
H          1.78810       -1.81671       -1.28439
H         -1.52417       -1.75995       -0.99632
H         -1.61520       -1.71615        0.77266
H         -2.67886       -0.68237       -0.19493
H         -0.04677        1.71200       -1.37029
H         -1.78315        1.37601       -1.33935
H         -0.69032        0.32642       -2.26239
H         -0.23477        1.77563        1.13018
H         -1.86416        1.10718        1.27529
H         -0.51179        0.57630        3.08190
