22
27.3498
O          2.32533        0.88864       -1.52346
C          1.95759       -0.08286       -0.86914
O          2.23325       -1.34548       -1.26304
C          1.13897       -0.03844        0.40926
O          1.39559       -1.18665        1.22376
C         -0.37093        0.13951        0.15887
C         -0.95040       -1.02292       -0.66328
C         -0.61889        1.46465       -0.57564
C         -1.06855        0.15568        1.53419
O         -2.45285        0.47841        1.45003
H          2.75620       -1.26654       -2.09109
H          1.50158        0.82609        0.97851
H          1.63464       -1.91011        0.60895
H         -0.64637       -1.98844       -0.24063
H         -0.62277       -0.99299       -1.70926
H         -2.04557       -0.98823       -0.65735
H         -1.68707        1.62948       -0.74008
H         -0.21841        2.31112       -0.00295
H         -0.13903        1.47109       -1.56025
H         -0.57486        0.85936        2.21615
H         -1.01852       -0.84088        1.97885
H         -2.52889        1.43950        1.33758
