43
40.6091
C         -2.45283        2.74127        0.80760
O         -1.89225        3.29175        1.73397
C         -2.14223        1.44948        0.18689
C         -3.02203        1.23407       -0.85656
C         -3.95552        2.37798       -0.93578
O         -3.52310        3.25087        0.12334
C         -2.94773        0.07768       -1.62589
C         -3.88431       -0.16282       -2.77455
C         -1.92133       -0.84030       -1.31734
C         -1.03008       -0.65232       -0.22780
C         -1.15281        0.53389        0.52326
O         -0.35081        0.83334        1.58366
C         -0.03551       -1.74571        0.13358
C          1.38792       -1.24674        0.14573
C          2.25952       -1.27536        1.17573
C          3.59394       -0.55934        1.06156
C          3.56673        0.80721        1.76017
C          4.91558        1.47534        1.70544
O          5.91285        1.00324        1.17858
O          4.93129        2.68313        2.31549
C          2.02376       -1.96922        2.49228
O         -1.85088       -2.00223       -2.04987
C         -0.95901       -1.84276       -3.15587
H         -3.87515        2.91683       -1.88355
H         -4.99121        2.08579       -0.74096
H         -3.44953        0.23226       -3.69802
H         -4.08055       -1.23186       -2.90836
H         -4.85528        0.31388       -2.61023
H          0.33960        0.16397        1.68456
H         -0.35213       -2.16212        1.09417
H         -0.07948       -2.58376       -0.57050
H          1.69345       -0.75884       -0.78171
H          3.86286       -0.41828        0.00657
H          4.38124       -1.19373        1.48644
H          3.28928        0.69609        2.81378
H          2.83872        1.46327        1.26946
H          4.06977        2.95029        2.68923
H          2.10129       -1.26081        3.32227
H          1.04592       -2.44776        2.56860
H          2.77491       -2.75312        2.63523
H         -0.96419       -2.77911       -3.72069
H          0.06509       -1.65629       -2.81697
H         -1.28576       -1.03916       -3.82292
