43
41.7058
C         -3.80799        2.75268        0.83293
O         -3.61847        3.55873        1.71777
C         -2.82821        1.92826        0.11902
C         -3.50201        1.14045       -0.80132
C         -4.94533        1.44545       -0.72629
O         -5.03494        2.43414        0.31308
C         -2.81817        0.24076       -1.61520
C         -3.54850       -0.60729       -2.61704
C         -1.42453        0.15662       -1.44667
C         -0.71338        1.00067       -0.55343
C         -1.44726        1.87656        0.26380
O         -0.85439        2.68738        1.18419
C          0.80071        0.94381       -0.51573
C          1.32145        0.01766        0.55009
C          2.33614       -0.86579        0.45081
C          2.72892       -1.70208        1.65706
C          4.06347       -1.28190        2.27475
C          3.96660        0.03894        3.00662
O          2.93218        0.61457        3.30205
O          5.18012        0.52377        3.35928
C          3.14667       -1.09858       -0.79563
O         -0.70786       -0.71401       -2.23500
C         -0.62196       -1.99722       -1.61186
H         -5.33260        1.88022       -1.65147
H         -5.54078        0.57552       -0.42934
H         -4.13897       -1.37166       -2.10308
H         -4.20821        0.00777       -3.23732
H         -2.86415       -1.11661       -3.30228
H          0.07486        2.44589        1.32721
H          1.17408        0.68217       -1.50936
H          1.19965        1.94939       -0.33786
H          0.82009        0.10711        1.51604
H          1.94304       -1.66939        2.42314
H          2.78869       -2.75275        1.34519
H          4.37355       -2.03798        3.00470
H          4.83722       -1.21127        1.50235
H          5.93129       -0.03805        3.09412
H          2.64588       -0.76383       -1.70633
H          3.34809       -2.16659       -0.92845
H          4.10405       -0.57322       -0.72276
H         -1.56408       -2.54323       -1.72132
H          0.16257       -2.56171       -2.12471
H         -0.35752       -1.93538       -0.55174
