50
64.8877
O          6.22267        2.54843       -0.81515
C          6.05204        1.26892       -0.42217
O          6.96990        0.62815        0.05041
C          4.62919        0.80720       -0.63862
C          4.52756       -0.72151       -0.60121
C          3.06991       -1.18210       -0.76437
C          2.11932       -0.56096        0.29617
C          2.27027        0.97426        0.21539
C          3.71388        1.43004        0.41365
C          2.52625       -1.00077        1.64641
N          2.88542       -1.36795        2.69931
C          0.68317       -1.02865        0.04533
C          0.36446       -2.38675        0.23333
C         -0.92592       -2.86623        0.00471
C         -1.93364       -1.99365       -0.40651
O         -3.21714       -2.35245       -0.69120
C         -3.56677       -3.71110       -0.51479
C         -1.64256       -0.63583       -0.55401
C         -0.34723       -0.16072       -0.35011
O         -2.57396        0.26144       -1.01696
C         -3.54981        0.63129       -0.03338
C         -4.67840        1.38741       -0.73822
C         -5.32515        2.20294        0.37188
C         -4.14799        2.66443        1.22903
C         -3.01405        1.65890        0.97401
H          7.15599        2.76219       -0.60711
H          4.32221        1.15049       -1.63513
H          4.93197       -1.09586        0.34929
H          5.15127       -1.16600       -1.38844
H          2.72762       -0.88483       -1.77057
H          3.03721       -2.27934       -0.74193
H          1.93468        1.32087       -0.77404
H          1.62913        1.45969        0.96262
H          3.76478        2.52239        0.36215
H          4.05301        1.15279        1.41926
H          1.12989       -3.08681        0.56887
H         -1.11011       -3.92563        0.15114
H         -4.62568       -3.79019       -0.76835
H         -3.43414       -4.02482        0.52560
H         -2.99712       -4.35783       -1.18884
H         -0.17215        0.90037       -0.49952
H         -3.96722       -0.23597        0.49422
H         -5.38393        0.71030       -1.23461
H         -4.26136        2.04009       -1.51511
H         -5.99319        1.56644        0.96367
H         -5.92794        3.03729       -0.00740
H         -3.82614        3.67207        0.93408
H         -4.42236        2.72652        2.28879
H         -2.69834        1.16006        1.89898
H         -2.12950        2.17098        0.57945
