61
35.5106
N          8.42727       -1.15693       -2.68341
C          7.96391        0.10730       -2.59735
C          6.88154        0.48066       -1.82164
C          6.18441       -0.48358       -1.08566
C          6.65068       -1.79686       -1.18290
C          7.75667       -2.08165       -1.96380
N          5.09017       -0.15820       -0.29795
C          4.64831       -1.02994        0.78568
C          4.04420       -0.18501        1.90501
C          2.79328        0.57332        1.41931
C          2.92504        0.93650       -0.06982
C          4.37786        1.10410       -0.49672
C          1.55164       -0.27444        1.62926
O          1.65198       -1.51658        1.66993
N          0.32818        0.34349        1.72059
C         -0.88140       -0.47602        1.78151
C         -1.67920       -0.35828        0.48202
N         -1.97757        1.06144        0.13996
C         -0.73879        1.89736        0.13547
C          0.04030        1.76340        1.44917
S         -3.26559        1.81671        0.95946
O         -3.01537        1.69815        2.37676
O         -3.44762        3.10755        0.34654
C         -4.64631        0.78786        0.54679
C         -5.08783        0.67715       -0.77337
C         -6.18466       -0.14341       -1.07229
C         -6.83875       -0.86404       -0.03085
C         -6.36299       -0.74243        1.28101
C         -5.26437        0.07910        1.56789
C         -7.93920       -1.67580       -0.33566
C         -8.39365       -1.77865       -1.65810
C         -7.76066       -1.08136       -2.67466
C         -6.66050       -0.26658       -2.38627
Cl        -9.74507       -2.77884       -2.01722
H          8.51322        0.84135       -3.17865
H          6.59867        1.52669       -1.80009
H          6.15977       -2.61209       -0.66231
H          8.13658       -3.09542       -2.04528
H          3.91929       -1.75554        0.40828
H          5.50004       -1.58215        1.19610
H          3.80678       -0.82668        2.76373
H          4.79146        0.54142        2.24832
H          2.70141        1.47423        2.04166
H          2.47912        0.13112       -0.67072
H          2.36102        1.84300       -0.29847
H          4.86793        1.90224        0.07434
H          4.38466        1.38429       -1.55614
H         -1.47035       -0.13640        2.63212
H         -0.62734       -1.52564        1.96551
H         -1.10171       -0.77688       -0.35221
H         -2.61318       -0.91944        0.54141
H         -0.12126        1.58003       -0.71397
H         -1.01200        2.94294       -0.03053
H         -0.55906        2.12637        2.28740
H          0.94588        2.35918        1.41904
H         -4.58414        1.23255       -1.56121
H         -6.84426       -1.27834        2.09699
H         -4.91106        0.15978        2.59814
H         -8.45155       -2.23216        0.44871
H         -8.11969       -1.16536       -3.70383
H         -6.17616        0.27541       -3.19703
