44
83.1001
Cl         0.04845       -5.14222       -0.84467
C         -0.68867       -3.59753       -0.77287
C         -0.42272       -2.73569        0.27188
N         -0.94124       -1.49186        0.36412
C         -1.78102       -1.06886       -0.60893
N         -2.26642        0.23790       -0.47286
C         -3.23098        0.87719       -1.23146
O         -3.86377        0.46787       -2.18887
C         -3.41742        2.20871       -0.62776
N         -4.31051        3.13875       -1.00767
C         -4.27788        4.24840       -0.22897
C         -3.40974        4.39289        0.85783
N         -2.51968        3.43833        1.22344
C         -2.55264        2.33933        0.43871
C         -1.71776        1.09983        0.57280
O         -0.37428        1.39707        0.21730
C          0.50808        1.28101        1.23753
O          0.20730        1.33362        2.42019
N          1.78327        1.02923        0.75796
C          1.93848        0.46817       -0.58902
C          3.33607       -0.12041       -0.82434
N          3.76073       -1.10121        0.20036
C          3.21762       -0.78926        1.54616
C          2.84724        0.69490        1.70475
C          3.42886       -2.46835       -0.18791
C         -2.11650       -1.88856       -1.68281
C         -1.55562       -3.16721       -1.76623
H          0.24743       -3.01023        1.08121
H         -4.97483        5.03661       -0.49485
H         -3.41127        5.29022        1.46658
H         -1.85808        0.62934        1.55226
H          1.19918       -0.33083       -0.71677
H          1.70605        1.24608       -1.32474
H          4.05692        0.70646       -0.80601
H          3.40136       -0.54660       -1.83296
H          2.31150       -1.37850        1.74771
H          3.96205       -1.07180        2.29776
H          3.71291        1.33108        1.48181
H          2.54321        0.90818        2.73396
H          3.77242       -3.17927        0.57104
H          3.93227       -2.73185       -1.12366
H          2.35396       -2.61007       -0.33151
H         -2.78462       -1.56189       -2.47254
H         -1.79970       -3.80899       -2.60798
