25
42.5537
O         -0.00979       -2.70964       -0.97612
C         -1.27717       -2.33633       -1.28805
O         -1.97531       -3.03684       -2.01100
C         -1.66892       -1.07003       -0.70637
N         -2.85392       -0.55036       -1.06725
O         -2.98302        0.63369       -0.38898
C         -1.89107        0.83902        0.38648
C         -1.00161       -0.20070        0.22091
C          0.34768       -0.29287        0.85128
C          1.39754        0.56323        0.12867
N          1.70517        0.13089       -1.25659
C          2.69936        0.58055        0.93330
O          2.78127        0.67372        2.15107
O          3.81616        0.54470        0.17252
C         -1.84492        2.07899        1.18750
H          0.12388       -3.57804       -1.40969
H          0.28627        0.05976        1.89212
H          0.68679       -1.32903        0.89821
H          1.05732        1.60188        0.09781
H          1.08096        0.61455       -1.91175
H          1.50098       -0.87111       -1.34835
H          3.49811        0.43837       -0.75433
H         -1.56971        2.93533        0.56520
H         -1.09329        1.99583        1.98261
H         -2.81275        2.28443        1.65084
