45
78.5527
S          0.01525        0.05561       -0.02470
C         -0.81798        0.28004        1.45959
C         -0.48339       -0.70326        2.37189
C          0.43314       -1.65075        1.83711
C          0.78700       -1.37121        0.53251
C          1.74584       -2.14006       -0.33375
O          1.06223       -2.51183       -1.52853
C          3.03822       -1.39125       -0.60180
C          4.00185       -1.29523        0.41513
C          5.18345       -0.57057        0.22195
C          5.42176        0.06768       -0.99207
O          6.52874        0.80730       -1.30566
C          7.52078        0.92743       -0.29692
C          4.46770       -0.02108       -2.00831
C          3.28383       -0.73693       -1.81695
C         -1.75888        1.44230        1.62470
O         -2.10604        1.52639        3.01116
C         -3.01510        1.31147        0.78522
C         -4.02682        0.40191        1.12905
C         -5.15454        0.24226        0.31723
C         -5.28767        0.98788       -0.85366
O         -6.33373        0.92260       -1.73258
C         -7.37705        0.01072       -1.41287
C         -4.28318        1.89153       -1.20461
C         -3.15537        2.05318       -0.39623
H         -0.88416       -0.73480        3.37450
H          0.81858       -2.49851        2.39170
H          1.99984       -3.08426        0.16503
H          1.70145       -3.01276       -2.06028
H          3.82811       -1.76744        1.38071
H          5.88618       -0.51731        1.04751
H          7.93555       -0.05385       -0.03358
H          8.33731        1.53512       -0.69842
H          7.12755        1.43850        0.58668
H          4.64040        0.48688       -2.95454
H          2.54493       -0.75734       -2.61524
H         -1.23844        2.37844        1.38742
H         -2.80941        2.19285        3.07230
H         -3.92871       -0.20604        2.02703
H         -5.90122       -0.48220        0.62361
H         -7.85555        0.27707       -0.46440
H         -7.00778       -1.02027       -1.39383
H         -8.13473        0.07894       -2.19851
H         -4.37300        2.46557       -2.12386
H         -2.37694        2.74526       -0.71075
