50
78.8919
O          7.11790       -0.67996       -0.36667
C          6.22926        0.30861       -0.12613
O          6.46232        1.20735        0.65642
C          4.93286        0.17025       -0.92212
C          4.11574       -1.00917       -0.37487
C          3.19224       -0.54353        0.75877
C          2.08207        0.41855        0.25003
C          2.60759        1.19786       -0.99152
C          4.11255        1.47868       -0.87501
C          1.81833        1.38846        1.35291
N          1.58037        2.15032        2.19480
C          0.76543       -0.28432       -0.12720
C          0.65654       -1.66887       -0.34314
C         -0.57173       -2.25442       -0.67638
C         -1.71430       -1.46635       -0.80932
O         -2.96331       -1.92382       -1.11639
C         -3.11467       -3.31412       -1.32606
C         -1.62046       -0.09026       -0.59611
C         -0.39921        0.49497       -0.27639
O         -2.72526        0.69955       -0.78845
C         -3.29213        1.16338        0.43869
C         -3.99392        0.07505        1.24976
C         -4.94069        0.86497        2.13899
C         -5.48624        1.95409        1.21822
C         -4.43464        2.13600        0.11658
H          6.82559       -1.33082       -1.02086
H          5.21129       -0.02462       -1.96665
H          4.77157       -1.80736       -0.01606
H          3.51983       -1.43632       -1.19056
H          3.81795       -0.02173        1.49704
H          2.76808       -1.39566        1.29913
H          2.05936        2.14087       -1.11599
H          2.43398        0.61861       -1.90948
H          4.44044        2.15410       -1.67325
H          4.29461        2.01761        0.06308
H          1.51578       -2.32942       -0.25492
H         -0.60572       -3.33003       -0.82281
H         -2.51071       -3.64936       -2.17431
H         -4.16757       -3.48379       -1.56459
H         -2.87081       -3.88208       -0.42257
H         -0.36523        1.57233       -0.13174
H         -2.53889        1.67745        1.04939
H         -3.28654       -0.53411        1.82222
H         -4.55398       -0.59832        0.59119
H         -4.38750        1.32023        2.96931
H         -5.73034        0.24259        2.57244
H         -6.44145        1.64297        0.77643
H         -5.68109        2.88259        1.76587
H         -4.07133        3.16894        0.06638
H         -4.86398        1.91205       -0.86810
