50
66.1574
O          6.68102        0.80378       -0.94997
C          6.11343        1.43101        0.09458
O          6.69601        2.31971        0.69337
C          4.70726        0.96772        0.38227
C          3.74679        1.50249       -0.67901
C          2.31221        1.07206       -0.37799
C          2.15622       -0.46388       -0.29585
C          3.15278       -0.98141        0.77719
C          4.60284       -0.55597        0.49456
C          2.49508       -1.04185       -1.61554
N          2.79839       -1.52098       -2.63986
C          0.73105       -0.89500        0.06880
C          0.40505       -2.26475        0.03643
C         -0.87377       -2.71517        0.36458
C         -1.85966       -1.80057        0.72678
O         -3.14340       -2.11625        1.06174
C         -3.49758       -3.48524        1.06088
C         -1.55909       -0.43523        0.73365
C         -0.27820        0.01559        0.42101
O         -2.51388        0.45630        1.15486
C         -3.11895        1.18314        0.08301
C         -4.04706        0.35569       -0.80613
C         -4.94916        1.40634       -1.43884
C         -5.24757        2.36978       -0.29105
C         -4.06718        2.23343        0.68339
H          7.56577        1.21223       -1.05582
H          4.43506        1.40195        1.35295
H          4.04166        1.14169       -1.67213
H          3.79965        2.59545       -0.72032
H          2.02203        1.51660        0.58546
H          1.63955        1.48337       -1.14094
H          3.11235       -2.07441        0.87228
H          2.86235       -0.57587        1.76132
H          5.26527       -0.92588        1.28782
H          4.95087       -1.02708       -0.43418
H          1.15559       -2.99822       -0.25835
H         -1.06733       -3.78211        0.32880
H         -3.40342       -3.92021        0.06073
H         -4.54558       -3.53486        1.36438
H         -2.89860       -4.04707        1.78341
H         -0.09581        1.08409        0.46072
H         -2.35521        1.68605       -0.52275
H         -4.63634       -0.34185       -0.20192
H         -3.49286       -0.23139       -1.54722
H         -5.85502        0.97713       -1.88087
H         -4.41347        1.93084       -2.23911
H         -6.18422        2.09370        0.21167
H         -5.37913        3.39747       -0.64932
H         -3.55225        3.18987        0.83785
H         -4.41352        1.90777        1.67269
