45
7.69089
O         -4.87462       -1.31916        1.13850
N         -5.22495       -0.67533       -0.01019
C         -4.08819       -0.33799       -0.65416
C         -2.94987       -0.70949        0.16663
C         -1.50965       -0.49552        0.00610
O         -0.96146       -0.48888       -1.08726
N         -0.82449       -0.28452        1.19719
C          0.53911       -0.06664        1.28995
C          1.20039        0.20028        2.46705
N          2.55071        0.36138        2.20344
C          3.52299        0.66132        3.23160
C          2.76385        0.20623        0.84779
C          1.52223       -0.05937        0.28005
C          3.99263        0.27637        0.07925
O          4.03326        0.12844       -1.12752
O          5.08426        0.49379        0.85775
C          6.32330        0.51490        0.12344
C          6.84009       -0.89413       -0.13564
C         -3.52916       -1.36574        1.24445
C         -3.02208       -2.07469        2.44419
C         -4.22768        0.35251       -1.95371
C         -5.49286        0.83902       -2.34085
C         -5.68559        1.50130       -3.55597
C         -4.61212        1.67830       -4.42055
C         -3.35739        1.18699       -4.07272
C         -3.17400        0.52972       -2.85056
H         -1.34779       -0.21916        2.05486
H          0.83950        0.29463        3.48232
H          3.00895        0.76247        4.19819
H          4.25155       -0.15271        3.30981
H          4.03605        1.60348        3.01220
H          1.36879       -0.23362       -0.78289
H          6.21917        1.06782       -0.81991
H          7.03280        1.06181        0.75121
H          6.94170       -1.44984        0.80226
H          7.81467       -0.86941       -0.63453
H          6.14754       -1.45515       -0.77279
H         -2.02504       -2.49194        2.27147
H         -3.68528       -2.90191        2.71407
H         -2.95948       -1.40043        3.30574
H         -6.35345        0.69883       -1.68868
H         -6.67293        1.87190       -3.81695
H         -4.75397        2.19242       -5.36624
H         -2.51434        1.31103       -4.74877
H         -2.18714        0.15069       -2.63964
