44
84.4041
Cl         0.18697       -5.08407       -0.93424
C         -0.62284       -3.58028       -0.79898
C         -0.27638       -2.67626        0.18359
N         -0.85723       -1.46492        0.31592
C         -1.80471       -1.09749       -0.57324
N         -2.29066        0.20663       -0.43241
C         -3.28243        0.83554       -1.16701
O         -3.93236        0.41552       -2.10628
C         -3.44356        2.17164       -0.57908
N         -4.33337        3.10852       -0.95659
C         -4.27603        4.22849       -0.19839
C         -3.38534        4.38465        0.87106
N         -2.49897        3.42734        1.23199
C         -2.55460        2.31597        0.47164
C         -1.72623        1.07116        0.60406
O         -0.37643        1.36770        0.26380
C          0.49678        1.25739        1.29678
O          0.16051        1.22916        2.47340
N          1.80835        1.14157        0.86035
C          2.80786        0.62022        1.80143
C          3.67427       -0.49512        1.16596
N          2.83984       -1.35255        0.31012
C          2.31851       -0.58551       -0.84339
C          2.12987        0.92103       -0.54984
C          3.52050       -2.56729       -0.09955
C         -2.22923       -1.96681       -1.57361
C         -1.62990       -3.22337       -1.68347
H          0.52701       -2.87016        0.88831
H         -4.97411        5.01850       -0.46421
H         -3.37274        5.28966        1.46640
H         -1.87847        0.60546        1.58583
H          2.31130        0.21737        2.69228
H          3.44349        1.45376        2.11663
H          4.48248       -0.04866        0.57060
H          4.15168       -1.07153        1.96735
H          2.96857       -0.68551       -1.71971
H          1.35175       -1.00894       -1.13647
H          1.37012        1.34383       -1.21325
H          3.06718        1.45293       -0.75186
H          2.85744       -3.18990       -0.70891
H          3.79131       -3.16260        0.77949
H          4.42772       -2.35531       -0.67303
H         -3.00316       -1.69320       -2.28477
H         -1.94475       -3.90457       -2.46870
