36
58.4917
C          4.73131        0.59548       -1.06177
C          4.48779        1.18720        0.29525
C          3.96277       -0.17887       -0.03322
N          2.52352       -0.34065       -0.23552
C          1.79407       -0.45554        1.03357
C          0.27052       -0.67932        0.82874
C         -0.41755        0.55985        0.14657
N         -0.11213        0.68901       -1.29771
C         -1.94595        0.60222        0.35070
C         -2.72878       -0.55364       -0.27923
C         -4.24475       -0.41477       -0.10060
C         -4.84562        0.72565       -0.91068
O          0.10711       -1.84494        0.02164
O         -0.36977       -0.97809        2.06576
H          5.73403        0.26487       -1.30119
H          4.18435        1.00737       -1.90368
H          5.31700        1.25284        0.98791
H          3.77580        2.00372        0.37392
H          4.46983       -1.02607        0.41989
H          2.30408       -1.15545       -0.80656
H          2.19430       -1.31225        1.58990
H          1.94826        0.42962        1.65700
H         -0.03454        1.46288        0.63946
H          0.89384        0.87475       -1.37629
H         -0.20134       -0.25190       -1.69431
H         -2.16481        0.64009        1.42382
H         -2.31204        1.55746       -0.05632
H         -2.42993       -1.49785        0.19051
H         -2.49583       -0.63968       -1.34690
H         -4.48248       -0.27802        0.95982
H         -4.71462       -1.34956       -0.41603
H         -5.93231        0.73766       -0.78533
H         -4.46547        1.69843       -0.58799
H         -4.62880        0.60529       -1.97663
H         -0.41638       -2.44333        0.58077
H          0.24452       -1.49446        2.60474
