46
101.219
O          2.63072       -2.09310       -1.42758
C          2.52077       -1.17302       -0.61923
N          1.29503       -0.75305       -0.09988
C          0.06832       -1.36145       -0.65414
C         -1.15960       -1.15168        0.26033
N         -1.29940        0.24540        0.70624
C         -0.07247        0.89046        1.21659
C          1.14753       -0.05758        1.19030
C          0.23972        2.16759        0.42635
C         -2.52223        0.84492        1.00977
O         -2.63171        1.81035        1.76231
C         -3.75522        0.32153        0.38000
C         -3.83757        0.17553       -1.01010
C         -5.01175       -0.30623       -1.58785
C         -6.10927       -0.61092       -0.78162
C         -6.03991       -0.42664        0.60072
C         -4.86430        0.04592        1.18442
C         -0.22293       -0.81440       -2.05723
C          3.75402       -0.47005       -0.20436
C          3.85173        0.92192       -0.32182
C          5.02542        1.56921        0.06254
C          6.10812        0.82484        0.53311
C          6.02388       -0.56695        0.61219
C          4.84839       -1.21822        0.23758
H          0.23972       -2.44184       -0.74388
H         -1.04094       -1.74723        1.17513
H         -2.06484       -1.52904       -0.21825
H         -0.25233        1.17713        2.26058
H          2.05479        0.47408        1.48329
H          1.01485       -0.84663        1.94186
H         -0.59267        2.87735        0.46149
H          1.12101        2.67111        0.83783
H          0.43615        1.95087       -0.62824
H         -2.99440        0.44128       -1.64166
H         -5.07526       -0.43406       -2.66556
H         -7.02759       -0.97851       -1.23362
H         -6.90512       -0.64340        1.22246
H         -4.81288        0.20608        2.25859
H         -0.41045        0.26369       -2.03833
H          0.61589       -0.98524       -2.73916
H         -1.10355       -1.30312       -2.48734
H          3.02020        1.49975       -0.71569
H          5.10053        2.65128       -0.01431
H          7.02592        1.32935        0.82485
H          6.87786       -1.14424        0.95803
H          4.78582       -2.30304        0.28330
