34
128.6
C         -1.29901       -0.64738       -0.38356
N          0.02064       -0.06344       -0.13382
C          1.14255       -0.88108       -0.58970
C          2.46539       -0.21711       -0.27359
C          2.58221        1.18490       -0.20128
C          3.80012        1.79434        0.07737
C          4.93697        1.01499        0.26794
C          4.84731       -0.37536        0.17748
C          3.62411       -0.98576       -0.09482
C         -1.98491       -1.21806        0.89830
O         -1.11455       -1.31699        2.02293
C         -3.18420       -0.29606        1.17012
O         -2.80393        0.87737        1.90181
C         -3.61078        0.10966       -0.24172
O         -4.50199        1.22254       -0.18441
C         -2.26301        0.46630       -0.87221
S         -2.37417        0.60055       -2.68752
H         -1.24467       -1.45161       -1.12920
H          0.11046        0.08878        0.87705
H          1.10368       -1.86393       -0.10696
H          1.08995       -1.02558       -1.67602
H          1.70211        1.81401       -0.35441
H          3.85901        2.87593        0.14478
H          5.88796        1.49017        0.48269
H          5.73973       -0.98002        0.32019
H          3.57956       -2.07118       -0.16499
H         -2.35317       -2.22729        0.67430
H         -0.50288       -2.05628        1.86663
H         -3.98047       -0.79144        1.73483
H         -3.49751        1.53850        1.70511
H         -4.10389       -0.72592       -0.75133
H         -4.58774        1.55503       -1.09935
H         -1.94464        1.45714       -0.51852
H         -1.14024        1.10427       -2.85811
