61
37.9823
N          8.18522        2.20475        0.62344
C          7.04892        2.23853        1.34289
C          6.01110        1.34174        1.18983
C          6.09942        0.31799        0.23430
C          7.29495        0.25521       -0.48786
C          8.28136        1.20923       -0.27660
N          5.07730       -0.60807        0.03064
C          3.85957       -0.54545        0.83313
C          2.89852        0.49186        0.24419
C          2.54066        0.14499       -1.20816
C          3.82044       -0.12074       -2.02489
C          4.79333       -1.07922       -1.32879
C          1.59681       -1.04137       -1.25023
O          2.00125       -2.17127       -1.59377
N          0.29121       -0.87839       -0.88442
C         -0.55803       -2.07502       -0.85100
C         -1.88209       -1.82210       -0.13993
N         -1.65553       -0.98978        1.05722
C         -1.03153        0.32509        0.82726
C         -0.36941        0.38834       -0.54770
S         -2.77511       -1.11365        2.28527
O         -2.28494       -0.32313        3.39851
O         -3.10256       -2.51203        2.43315
C         -4.18931       -0.27095        1.59227
C         -5.01510       -0.91131        0.66275
C         -6.09801       -0.22388        0.09270
C         -6.36499        1.11329        0.47531
C         -5.53029        1.73329        1.42128
C         -4.44995        1.04153        1.97643
C         -7.45521        1.78998       -0.09684
C         -8.26430        1.14681       -1.03660
C         -7.99999       -0.16688       -1.41759
C         -6.92220       -0.84980       -0.85593
Cl        -9.59668        1.98322       -1.73310
H          6.98172        3.03922        2.07303
H          5.13000        1.46945        1.80749
H          7.48403       -0.53706       -1.20061
H          9.20488        1.18116       -0.84716
H          4.09267       -0.34210        1.88009
H          3.38601       -1.53234        0.81086
H          2.00835        0.54690        0.87461
H          3.35905        1.48738        0.25721
H          2.01992        0.98942       -1.68098
H          4.32883        0.83691       -2.19046
H          3.55967       -0.52507       -3.00923
H          5.69634       -1.19678       -1.92900
H          4.34881       -2.07592       -1.25177
H         -0.71867       -2.40764       -1.88547
H         -0.00160       -2.87447       -0.34530
H         -2.30561       -2.77869        0.16663
H         -2.59349       -1.32679       -0.81093
H         -0.28406        0.46859        1.61500
H         -1.77005        1.12598        0.90734
H         -1.13732        0.56817       -1.31405
H          0.32437        1.22408       -0.59793
H         -4.80754       -1.93886        0.37187
H         -5.71545        2.75981        1.73188
H         -3.80264        1.53501        2.70265
H         -7.67991        2.81811        0.18615
H         -8.63901       -0.65921       -2.15226
H         -6.72412       -1.87810       -1.15684
