50
69.6473
O          5.85610        2.11305       -1.58715
C          4.97029        2.03495       -0.57526
O          5.22852        2.52262        0.51158
C          3.70684        1.30055       -0.97541
C          4.02508       -0.18323       -1.22514
C          2.78559       -1.05386       -1.00888
C          2.32339       -1.03838        0.48421
C          2.66249        0.34690        1.11805
C          2.60335        1.47728        0.08482
C          3.10904       -2.06212        1.23961
N          3.73488       -2.85988        1.79915
C          0.82864       -1.40588        0.51479
C          0.41796       -2.69776        0.13293
C         -0.93213       -3.06731        0.13559
C         -1.91748       -2.15348        0.50992
O         -3.25563       -2.42170        0.57934
C         -3.67842       -3.71453        0.17376
C         -1.52394       -0.86125        0.87170
C         -0.17320       -0.50029        0.89267
O         -2.40468        0.08104        1.33721
C         -3.22711        0.65291        0.31716
C         -2.46277        1.64603       -0.56028
C         -3.52666        2.63641       -0.99747
C         -4.35080        2.84240        0.26221
C         -4.30678        1.50616        1.00196
H          6.61556        2.60021       -1.20317
H          3.34790        1.76756       -1.90235
H          4.82809       -0.52375       -0.55817
H          4.40505       -0.31445       -2.24507
H          2.99070       -2.07685       -1.35074
H          1.98730       -0.67219       -1.66274
H          3.68152        0.33279        1.53074
H          2.02508        0.56903        1.98090
H          2.68283        2.44723        0.58750
H          1.62508        1.47244       -0.41293
H          1.15290       -3.44941       -0.15737
H         -1.17216       -4.08715       -0.14808
H         -3.26923       -4.48710        0.83266
H         -4.76795       -3.74408        0.25613
H         -3.41631       -3.90492       -0.87237
H          0.05367        0.51181        1.21444
H         -3.71686       -0.11141       -0.30023
H         -1.67535        2.14888        0.01368
H         -1.98561        1.15498       -1.41441
H         -4.14895        2.20681       -1.79088
H         -3.09699        3.57153       -1.36884
H         -3.89361        3.62056        0.88547
H         -5.37376        3.16038        0.03864
H         -4.09324        1.66436        2.06536
H         -5.27822        1.00208        0.94477
