25
44.5992
O         -1.93366       -3.22580       -1.96360
C         -1.06226       -2.62103       -1.11042
O          0.01091       -3.12803       -0.81794
C         -1.54690       -1.33978       -0.59050
N         -2.76505       -0.88506       -0.94420
O         -2.92006        0.33234       -0.30436
C         -1.80778        0.60963        0.42099
C         -0.89241       -0.40840        0.26714
C          0.49645       -0.44628        0.81529
C          1.40967        0.54352        0.06897
N          1.58606        0.13772       -1.34208
C          2.75625        0.66920        0.77256
O          3.00001        0.42048        1.93879
O          3.70609        1.23917       -0.01365
C         -1.78046        1.89490        1.14995
H         -2.73316       -2.66567       -2.05368
H          0.45664       -0.19586        1.88280
H          0.91590       -1.45745        0.76950
H          0.96758        1.54907        0.08695
H          2.23758        0.78955       -1.78469
H          0.70078        0.21973       -1.84077
H          4.49367        1.27106        0.56327
H         -0.97356        1.90122        1.89119
H         -1.60205        2.72484        0.45928
H         -2.72026        2.07093        1.67921
