34
121.885
C         -0.81309        0.27587       -0.17583
N         -0.20549        1.57280        0.15352
C          0.98657        1.48901        1.00142
C          2.16158        0.79750        0.35959
C          2.72535       -0.34077        0.94868
C          3.83352       -0.97141        0.37209
C          4.39001       -0.46536       -0.80129
C          3.84237        0.66960       -1.39495
C          2.74117        1.30103       -0.81915
C         -1.05327       -0.71532        0.98703
O         -1.59094       -0.03279        2.13161
C         -2.10777       -1.70091        0.44601
O         -3.06253       -1.98874        1.47746
C         -2.76855       -0.99560       -0.75464
O         -4.19316       -1.06948       -0.64315
C         -2.25627        0.44672       -0.68813
S         -2.42080        1.29142       -2.29520
H         -0.20739       -0.22501       -0.94545
H          0.00558        2.08411       -0.69896
H          0.74405        1.02435        1.96333
H          1.29127        2.51249        1.25866
H          2.31550       -0.74181        1.87148
H          4.26549       -1.84858        0.84280
H          5.25537       -0.94861       -1.24714
H          4.27943        1.07234       -2.30567
H          2.33835        2.19375       -1.28481
H         -0.14427       -1.23497        1.30168
H         -2.29834       -0.62054        2.47103
H         -1.64192       -2.63792        0.12133
H         -3.93674       -1.82350        1.05828
H         -2.45933       -1.49385       -1.68217
H         -4.55562       -0.41512       -1.27120
H         -2.86405        1.01910        0.02411
H         -2.59608        2.52018       -1.78235
