46
108.188
O          2.75778        1.94203       -1.34916
C          2.64896        0.99595       -0.57235
N          1.41908        0.56569       -0.06048
C          1.13945       -0.86263        0.22323
C         -0.04740       -1.00087        1.20424
N         -1.23724       -0.25465        0.77243
C         -0.94155        1.19214        0.55897
C          0.24672        1.37198       -0.42245
C         -2.06766        2.12721        0.12746
C         -2.21312       -1.02133        0.12286
O         -2.02587       -2.18332       -0.23512
C         -3.58342       -0.49676       -0.04660
C         -4.26975        0.06727        1.03458
C         -5.56786        0.54744        0.85648
C         -6.19255        0.42451       -0.38555
C         -5.52872       -0.19098       -1.44818
C         -4.22608       -0.66082       -1.27851
C          0.93041       -1.63965       -1.08132
C          3.89011        0.31119       -0.13436
C          4.12471        0.04405        1.22025
C          5.31134       -0.57826        1.61037
C          6.27211       -0.90971        0.65399
C          6.05421       -0.61094       -0.69166
C          4.86818        0.00719       -1.08716
H          2.00730       -1.31313        0.71080
H          0.24206       -0.58217        2.17684
H         -0.28430       -2.05674        1.37770
H         -0.60534        1.54732        1.54366
H          0.54155        2.42875       -0.44121
H         -0.04544        1.09768       -1.44288
H         -2.84221        2.19852        0.89328
H         -2.51231        1.82394       -0.82430
H         -1.68766        3.14593       -0.01161
H         -3.79009        0.14864        2.00647
H         -6.09297        1.01584        1.68499
H         -7.20503        0.79710       -0.52247
H         -6.02800       -0.30929       -2.40654
H         -3.71359       -1.15577       -2.10015
H          1.82461       -1.58610       -1.71161
H          0.10042       -1.23911       -1.67160
H          0.72803       -2.69580       -0.87685
H          3.39174        0.32546        1.97158
H          5.49255       -0.79574        2.65983
H          7.19900       -1.38886        0.95948
H          6.81188       -0.85099       -1.43403
H          4.70593        0.25779       -2.13334
