34
117.464
C         -1.20793       -0.39889       -0.38243
N          0.12958        0.10860       -0.18764
C          1.19410       -0.84267       -0.51532
C          2.56977       -0.22575       -0.32881
C          3.67350       -1.03332       -0.05959
C          4.94698       -0.47385        0.08063
C          5.12672        0.90081       -0.06015
C          4.03390        1.71761       -0.33421
C          2.76694        1.15491       -0.47277
C         -1.78782       -1.20511        0.80462
O         -1.36114       -0.58091        2.02685
C         -3.32483       -1.08533        0.66032
O         -3.88710       -0.71591        1.92949
C         -3.56183        0.01982       -0.39178
O         -4.63230        0.86324        0.03748
C         -2.22570        0.74287       -0.44853
S         -2.06307        1.79558       -1.93379
H         -1.28080       -0.99322       -1.30066
H          0.22443        0.36352        0.80632
H          1.12835       -1.74431        0.10417
H          1.09169       -1.14914       -1.56293
H          3.54906       -2.10501        0.05466
H          5.79931       -1.11531        0.29998
H          6.11909        1.33803        0.04777
H          4.16194        2.79150       -0.44357
H          1.91422        1.80263       -0.67937
H         -1.44937       -2.24476        0.82184
H         -2.18830       -0.43998        2.53389
H         -3.78257       -2.02651        0.34025
H         -4.43442        0.08157        1.74007
H         -3.80292       -0.43043       -1.36276
H         -4.56755        1.69543       -0.47271
H         -2.12421        1.40271        0.42707
H         -0.74770        2.03159       -1.77838
