40
50.4025
O          5.59489        3.31639        1.75571
C          5.52471        2.10906        2.02927
C          6.57849        1.43881        2.86659
C          4.38373        1.29266        1.52814
C          3.40483        1.92084        0.74985
C          2.31323        1.19720        0.25650
C          2.18794       -0.16022        0.53301
C          3.16600       -0.79082        1.31063
C          4.25779       -0.07121        1.80709
N          1.12258       -0.96435        0.07142
C          0.02274       -0.56292       -0.66584
O         -0.18120        0.59923       -0.99541
C         -0.88905       -1.65907       -1.02895
C         -0.49980       -2.99960       -1.30774
N         -1.52058       -3.79853       -1.61402
N         -2.57907       -2.98184       -1.52791
C         -2.27446       -1.66421       -1.22935
C         -3.35051       -0.65029       -1.19379
C         -3.08755        0.69784       -1.47579
C         -4.10699        1.65556       -1.48871
Cl        -3.74043        3.30379       -1.84174
C         -5.41506        1.27123       -1.21561
O         -6.46176        2.15398       -1.20467
C         -5.71549       -0.05602       -0.93816
C         -4.68959       -1.00280       -0.93290
O         -4.99451       -2.31517       -0.66718
H          6.13952        1.02774        3.77968
H          7.06644        0.63952        2.30230
H          7.33459        2.17955        3.14629
H          3.50412        2.98355        0.53339
H          1.56786        1.71149       -0.34323
H          3.09077       -1.85218        1.53919
H          4.99362       -0.59731        2.40615
H          1.14781       -1.92159        0.37719
H          0.49514       -3.42582       -1.32219
H         -3.50719       -3.38018       -1.67498
H         -2.08582        1.02642       -1.70565
H         -6.10789        3.03983       -1.41487
H         -6.74465       -0.32597       -0.73053
H         -5.94521       -2.38461       -0.47317
