39
0.431554
N         -2.92706        0.48691       -1.77534
C         -1.72540       -0.03396       -2.07269
N         -0.83884       -0.56574       -1.19830
C         -1.10038       -0.56754        0.13136
C         -2.33935       -0.05507        0.53725
C         -3.16123        0.43432       -0.45885
O         -4.30863        0.87390        0.13751
C         -4.10808        0.62509        1.46845
N         -2.94250        0.07907        1.76958
C         -5.21729        0.99782        2.36850
N         -0.18729       -1.07949        1.04809
C          1.24384       -1.19291        0.75537
C          1.54679       -2.28083       -0.27938
C          3.01610       -2.40649       -0.58873
O          3.47259       -2.32286       -1.72049
O          3.80332       -2.69056        0.47136
C          1.92202        0.15018        0.52117
C          1.96675        0.74420       -0.74963
C          2.66629        1.93181       -0.96700
C          3.34378        2.54015        0.08327
C          3.31326        1.96831        1.35238
C          2.60010        0.78655        1.57416
C         -1.30892       -0.02587       -3.51290
H         -5.41389        2.07265        2.30835
H         -4.97420        0.75017        3.40542
H         -6.13062        0.46125        2.09276
H         -0.41984       -0.77778        1.99369
H          1.66933       -1.57473        1.69372
H          1.18010       -3.25696        0.06153
H          1.04457       -2.09054       -1.23350
H          3.34825       -2.78913        1.32579
H          1.48243        0.27277       -1.60000
H          2.69599        2.36427       -1.96352
H          3.90694        3.45255       -0.09293
H          3.85902        2.43528        2.16743
H          2.60978        0.35424        2.57227
H         -1.21704       -1.05165       -3.87819
H         -2.03398        0.50722       -4.13213
H         -0.33673        0.47337       -3.61585
