45
15.8539
O         -2.41395        0.63668        1.88446
N         -3.19292        1.28203        0.96631
C         -3.14283        0.56794       -0.17725
C         -2.22209       -0.52283       -0.01570
C         -1.72513       -1.50531       -0.96621
O         -2.45327       -2.18760       -1.67253
N         -0.36200       -1.76940       -0.97116
C          0.64730       -0.98460       -0.45558
C          0.72160        0.38498       -0.50297
N          1.86924        0.78741        0.12704
C          2.27980        2.17264        0.25750
C          2.53282       -0.31376        0.62913
C          1.78838       -1.42740        0.24818
C          3.75514       -0.25492        1.39740
O          4.36877        0.76755        1.68436
O          4.14087       -1.51265        1.74720
C          5.36183       -1.58910        2.49031
C          6.55224       -1.55511        1.54847
C         -1.87296       -0.46709        1.32395
C         -1.05302       -1.28758        2.24004
C         -3.93581        1.03622       -1.32800
C         -4.24103        0.22791       -2.42823
C         -5.00696        0.71010       -3.49393
C         -5.49362        2.01310       -3.47479
C         -5.22170        2.83073       -2.38397
C         -4.45604        2.34427       -1.32152
H         -0.09860       -2.59768       -1.48665
H          0.06934        1.11412       -0.97285
H          1.46912        2.82130       -0.08467
H          3.16684        2.33343       -0.36054
H          2.48822        2.39237        1.30724
H          2.01348       -2.44749        0.54144
H          5.42166       -0.78999        3.23762
H          5.34308       -2.53878        3.03355
H          6.47977       -2.35595        0.80522
H          6.58920       -0.61144        0.99379
H          7.48686       -1.66734        2.10291
H         -1.67810       -1.70480        3.03549
H         -0.58263       -2.13297        1.73382
H         -0.26437       -0.68638        2.70584
H         -3.92580       -0.80458       -2.48602
H         -5.22924        0.05698       -4.33483
H         -6.09064        2.38563       -4.30082
H         -5.60759        3.84605       -2.34939
H         -4.27524        3.00328       -0.47364
