36
57.7948
C          4.84131        1.25164       -0.19697
C          4.80639       -0.24801       -0.07770
C          3.88669        0.59053        0.76409
N          2.45353        0.65943        0.49631
C          1.82630       -0.67135        0.37533
C          0.29329       -0.58684        0.59570
C         -0.45494        0.06614       -0.61770
N         -0.52328       -0.81765       -1.79927
C         -1.87518        0.56633       -0.26941
C         -2.88059       -0.52028        0.12420
C         -4.26827        0.03982        0.44376
C         -4.98328        0.60631       -0.77231
O         -0.17802       -1.90894        0.81947
O          0.05107        0.13841        1.79559
H          5.69384        1.77217        0.21874
H          4.45104        1.68941       -1.10664
H          5.63175       -0.74088        0.41937
H          4.40297       -0.80810       -0.91559
H          4.14182        0.65626        1.82005
H          2.26337        1.20098       -0.34856
H          2.05750       -1.13267       -0.58881
H          2.24305       -1.33011        1.15003
H          0.09529        0.96663       -0.91707
H         -0.74871       -1.75569       -1.44750
H          0.39987       -0.91429       -2.21789
H         -1.80677        1.29973        0.54319
H         -2.25481        1.12175       -1.13407
H         -2.52509       -1.04250        1.01890
H         -2.96796       -1.26834       -0.67158
H         -4.87997       -0.76917        0.86033
H         -4.19152        0.81147        1.21901
H         -5.99609        0.91877       -0.49972
H         -4.46637        1.48232       -1.17493
H         -5.06138       -0.14403       -1.56525
H         -0.29370       -1.92707        1.78677
H          0.81685        0.74780        1.87015
