25
51.6163
O          0.26967       -1.92802       -1.88585
C         -0.68692       -2.37345       -1.02805
O         -0.85854       -3.57532       -0.86842
C         -1.39955       -1.30292       -0.34442
N         -2.56796       -1.56289        0.26317
O         -2.98788       -0.38248        0.81773
C         -2.08413        0.59166        0.54986
C         -1.02767        0.06653       -0.15492
C          0.23975        0.75875       -0.54028
C          1.39676        0.44041        0.42309
N          2.60701        1.23946        0.06969
C          1.78290       -1.03455        0.35623
O          1.15208       -1.93104        0.89153
O          2.87508       -1.26623       -0.42928
C         -2.39745        1.93396        1.07891
H          0.77007       -2.73256       -2.14269
H          0.52771        0.50376       -1.56373
H          0.06682        1.84742       -0.53622
H          1.08066        0.64155        1.45598
H          3.13235        1.43840        0.92885
H          2.32625        2.15006       -0.29937
H          3.20909       -0.39290       -0.68739
H         -3.41129        2.23787        0.80258
H         -2.31084        1.95617        2.16896
H         -1.70394        2.67636        0.67406
