46
105.624
O          3.52851        2.11662        0.01750
C          2.83152        1.09959       -0.04844
N          1.47675        1.14561       -0.30768
C          0.70145        0.03121       -0.85858
C         -0.80135        0.36184       -0.86176
N         -1.22077        1.06534        0.35836
C         -0.46349        2.28073        0.71995
C          0.78018        2.43389       -0.17049
C         -1.37450        3.50830        0.61036
C         -2.13026        0.57659        1.27732
O         -2.12974        0.92089        2.45922
C         -3.18947       -0.35363        0.80535
C         -3.80286       -0.20607       -0.44644
C         -4.79519       -1.10038       -0.84671
C         -5.19489       -2.12544        0.01007
C         -4.61028       -2.24917        1.27259
C         -3.61637       -1.35747        1.67329
C          1.17413       -0.30515       -2.27647
C          3.48303       -0.22095        0.13569
C          3.00074       -1.13496        1.07947
C          3.62512       -2.37637        1.22100
C          4.73523       -2.69248        0.43372
C          5.22405       -1.77130       -0.48812
C          4.60338       -0.52831       -0.63489
H          0.84812       -0.85089       -0.23023
H         -1.34887       -0.57189       -0.98515
H         -1.03699        1.02236       -1.70412
H         -0.13943        2.18620        1.76582
H          0.49166        2.76658       -1.17540
H          1.45236        3.18584        0.25003
H         -0.82976        4.42492        0.85551
H         -2.22680        3.43328        1.29606
H         -1.78215        3.60910       -0.40219
H         -3.51055        0.59781       -1.11613
H         -5.26088       -0.99359       -1.82356
H         -5.97014       -2.82190       -0.30046
H         -4.93117       -3.03783        1.94809
H         -3.16979       -1.43214        2.66106
H          2.22454       -0.61104       -2.29580
H          0.58693       -1.12887       -2.69214
H          1.07849        0.55928       -2.94231
H          2.14205       -0.88716        1.69513
H          3.24940       -3.08999        1.95054
H          5.22040       -3.66158        0.55118
H          6.09659       -2.01524       -1.09330
H          4.98105        0.19781       -1.34694
