44
89.4369
Cl        -0.18236       -5.10473       -1.45123
C         -0.85517       -3.56948       -1.09804
C         -1.41649       -2.79396       -2.09491
N         -1.94576       -1.56628       -1.87997
C         -1.91961       -1.07153       -0.62837
N         -2.39289        0.22640       -0.41928
C         -3.33062        0.86297       -1.24262
O         -4.02569        0.41770       -2.13495
C         -3.40353        2.25525       -0.76321
N         -4.20212        3.23746       -1.23265
C         -4.05734        4.40575       -0.56426
C         -3.18166        4.56839        0.50994
N         -2.39203        3.56814        0.97789
C         -2.53780        2.41020        0.29992
C         -1.82830        1.11141        0.57855
O         -0.43278        1.27259        0.32280
C          0.40138        0.86638        1.30929
O          0.02448        0.50587        2.41883
N          1.72390        0.83382        0.89388
C          2.03706        0.61862       -0.52214
C          2.15235       -0.89632       -0.80311
N          3.09537       -1.61338        0.08111
C          2.82327       -1.28428        1.49842
C          2.70161        0.22681        1.79348
C          4.48516       -1.36100       -0.28940
C         -1.37246       -1.79749        0.43264
C         -0.84016       -3.06805        0.19339
H         -1.45648       -3.13155       -3.12461
H         -4.67127        5.23266       -0.91328
H         -3.09222        5.51868        1.02927
H         -2.08520        0.76246        1.58408
H          1.27128        1.05551       -1.16894
H          2.98393        1.12170       -0.74162
H          1.17195       -1.34905       -0.64288
H          2.39283       -1.08019       -1.85571
H          3.57977       -1.73915        2.14729
H          1.87074       -1.76343        1.76001
H          2.40712        0.38224        2.83626
H          3.66218        0.73136        1.63866
H          5.15092       -1.96865        0.33213
H          4.79359       -0.31401       -0.19538
H          4.65471       -1.67206       -1.32603
H         -1.35665       -1.41315        1.44489
H         -0.40504       -3.63463        1.00986
