61
43.3177
N          8.70003       -1.52301       -1.30938
C          7.56024       -2.03476       -1.81645
C          6.29556       -1.53282       -1.54227
C          6.15386       -0.41544       -0.71072
C          7.33339        0.11139       -0.16815
C          8.55690       -0.46246       -0.49104
N          4.86831        0.08609       -0.41164
C          4.78690        1.07226        0.66710
C          3.34295        1.21509        1.14529
C          2.41483        1.55302       -0.02515
C          2.57207        0.55414       -1.17606
C          4.04560        0.43387       -1.58291
C          0.98520        1.83239        0.36418
O          0.52130        2.97333        0.11468
N          0.19198        0.90951        0.97123
C         -1.18735        1.32492        1.27213
C         -2.02488        0.19041        1.84268
N         -1.88347       -1.00045        0.98380
C         -0.50535       -1.43886        0.68217
C          0.52708       -0.48782        1.27563
S         -2.99271       -2.23242        1.20746
O         -2.67777       -3.26818        0.25512
O         -3.06066       -2.50291        2.63327
C         -4.48738       -1.42112        0.71852
C         -4.56880       -0.75064       -0.50660
C         -5.75694       -0.09387       -0.86713
C         -6.85879       -0.09775        0.02350
C         -6.73978       -0.75011        1.26249
C         -5.55384       -1.39645        1.61282
C         -8.04804        0.55389       -0.34464
C         -8.13966        1.20110       -1.57851
C         -7.05775        1.20973       -2.45359
C         -5.87105        0.56633       -2.10207
Cl        -9.59981        1.99684       -2.02127
H          7.68771       -2.89455       -2.46840
H          5.42610       -2.02997       -1.95517
H          7.33256        0.97367        0.48675
H          9.48133       -0.06028       -0.08591
H          5.39525        0.73647        1.51209
H          5.16520        2.04077        0.32124
H          3.04526        0.29071        1.64989
H          3.28917        2.00387        1.90210
H          2.75601        2.52453       -0.41269
H          1.98290        0.89074       -2.03577
H          2.18429       -0.43448       -0.91264
H          4.37624        1.38998       -2.00522
H          4.13762       -0.32037       -2.36770
H         -1.64239        1.69772        0.34227
H         -1.14492        2.17177        1.96519
H         -1.72540       -0.03374        2.87179
H         -3.07351        0.48605        1.84607
H         -0.40054       -1.47101       -0.41042
H         -0.35567       -2.44874        1.07037
H          0.54941       -0.60389        2.36588
H          1.51186       -0.74532        0.91142
H         -3.70799       -0.74373       -1.17369
H         -7.57210       -0.76146        1.96374
H         -5.46307       -1.89127        2.57993
H         -8.90633        0.56045        0.32645
H         -7.13992        1.71930       -3.41621
H         -5.03122        0.57753       -2.79582
