57
54.8695
C         -1.76187        0.03450        0.76278
C         -2.31003       -1.13276       -0.04715
C         -2.33617       -2.40995        0.80819
O         -1.44627       -2.85861        1.53083
N         -3.53927       -3.03434        0.54694
C         -4.31225       -2.36333       -0.46272
N         -3.72326       -1.02123       -0.56316
C         -4.57296       -0.03329       -0.02285
C         -5.05096       -0.08459        1.29106
C         -5.89859        0.90267        1.79676
C         -6.29383        1.96835        0.98980
C         -5.83961        2.03527       -0.32503
C         -4.98425        1.04355       -0.82365
C         -1.37902       -1.40777       -1.24102
C         -1.12412       -0.14243       -2.05245
N         -0.64654        0.98818       -1.27870
C          0.79376        1.17841       -1.17065
C          1.59639        0.20116       -0.29970
C          3.06133        0.56186       -0.31638
C          4.04243       -0.08477        0.36757
C          5.45651        0.35730        0.23571
C          5.96292        0.89216       -0.96569
C          7.29501        1.29317       -1.06893
C          8.13198        1.14689        0.02603
C          7.67452        0.60675        1.21782
C          6.34141        0.20979        1.31519
F          9.41244        1.53123       -0.07016
C          3.75308       -1.22635        1.30154
C         -1.44915        1.25305       -0.09850
H         -2.44855        0.31948        1.56257
H         -0.85065       -0.30501        1.26655
H         -3.72600       -3.96417        0.90541
H         -5.37370       -2.35899       -0.20089
H         -4.18940       -2.89344       -1.41203
H         -4.75906       -0.91132        1.93272
H         -6.25040        0.83187        2.82307
H         -6.95402        2.73569        1.38592
H         -6.14765        2.86307       -0.96609
H         -4.62982        1.11790       -1.84852
H         -1.81743       -2.16751       -1.90080
H         -0.43232       -1.82304       -0.87720
H         -0.44026       -0.33851       -2.88575
H         -2.07649        0.16183       -2.50261
H          1.21311        1.16983       -2.18735
H          0.96939        2.19916       -0.80085
H          1.47024       -0.81742       -0.67748
H          1.22128        0.22510        0.72743
H          3.33247        1.43125       -0.90915
H          5.32403        0.98750       -1.84222
H          7.68397        1.71191       -1.99249
H          8.35244        0.49878        2.05891
H          5.99178       -0.21039        2.25471
H          4.49964       -2.02001        1.18599
H          3.77688       -0.88674        2.34349
H          2.77382       -1.68069        1.13064
H         -2.38795        1.67996       -0.45920
H         -0.97895        2.03903        0.50173
