50
70.8184
O          6.55875        1.95632       -0.45623
C          5.91680        0.79273       -0.66900
O          6.52663       -0.26417       -0.68860
C          4.42724        0.99151       -0.85273
C          3.75167       -0.29452       -1.37480
C          3.27790       -1.16669       -0.20672
C          2.16330       -0.47084        0.64557
C          2.31901        1.06653        0.50218
C          3.79505        1.45553        0.46728
C          2.39212       -0.81719        2.07192
N          2.59502       -1.09090        3.18768
C          0.75970       -0.95776        0.24962
C          0.45090       -2.32431        0.38989
C         -0.80974       -2.82390        0.05658
C         -1.80497       -1.96282       -0.40893
O         -3.05421       -2.34279       -0.80024
C         -3.38335       -3.71430       -0.67835
C         -1.53029       -0.59684       -0.50397
C         -0.26179       -0.10308       -0.19507
O         -2.44259        0.29684       -1.01029
C         -3.49765        0.61998       -0.09639
C         -4.58902        1.36679       -0.86541
C         -5.32933        2.14341        0.21151
C         -4.22527        2.61541        1.15343
C         -3.05931        1.63513        0.96829
H          7.49977        1.70719       -0.33518
H          4.30847        1.76943       -1.61892
H          2.88777       -0.03013       -1.99735
H          4.43362       -0.86222       -2.01779
H          2.95921       -2.14691       -0.57640
H          4.15189       -1.36299        0.43118
H          1.87202        1.42678       -0.43286
H          1.80257        1.58078        1.32298
H          4.31258        1.00413        1.32350
H          3.90676        2.54048        0.57498
H          1.19949       -3.01870        0.77565
H         -0.97811       -3.89009        0.16780
H         -2.75097       -4.33171       -1.32368
H         -3.32261       -4.04689        0.36249
H         -4.41919       -3.81556       -1.01129
H         -0.11302        0.96633       -0.29775
H         -3.93189       -0.26908        0.37957
H         -4.13654        2.04542       -1.59885
H         -5.24369        0.68569       -1.42012
H         -6.02070        1.48161        0.74614
H         -5.92061        2.97254       -0.19402
H         -3.90205        3.63020        0.88894
H         -4.57369        2.65890        2.19134
H         -2.15618        2.17175        0.65677
H         -2.81145        1.12298        1.90564
