57
44.0341
C         -2.31618       -0.26344       -1.49240
C         -2.88484       -1.00865       -0.29309
C         -2.49723       -2.50622       -0.29345
O         -1.39956       -3.02241       -0.47589
N         -3.64907       -3.20906        0.03440
C         -4.80913       -2.36662        0.20086
N         -4.37936       -1.10082       -0.37112
C         -5.14449        0.03057       -0.09934
C         -5.53110        0.39219        1.19233
C         -6.28956        1.54071        1.43040
C         -6.66818        2.36017        0.37033
C         -6.27474        2.03279       -0.92490
C         -5.51129        0.88168       -1.15355
C         -2.40510       -0.34125        0.99997
C         -0.88294       -0.22639        1.02795
N         -0.44327        0.53505       -0.13755
C          0.95936        0.94978       -0.07078
C          2.02298       -0.16201       -0.06963
C          3.40610        0.43563       -0.00609
C          4.56825       -0.26698        0.02787
C          5.87053        0.44977        0.06086
C          6.06031        1.68290       -0.59861
C          7.29293        2.33549       -0.56223
C          8.34034        1.74900        0.11857
C          8.20455        0.53078        0.76286
C          6.96936       -0.11557        0.72507
F          9.53336        2.37494        0.15673
C          4.60031       -1.76882        0.07527
C         -0.79970       -0.11281       -1.39818
H         -2.75912        0.73987       -1.51621
H         -2.59131       -0.76329       -2.42630
H         -3.61759       -4.21386        0.14180
H         -5.65987       -2.78774       -0.34072
H         -5.05119       -2.30463        1.26481
H         -5.21098       -0.20851        2.03713
H         -6.57895        1.79053        2.44862
H         -7.26180        3.25278        0.55521
H         -6.55886        2.66905       -1.76241
H         -5.20595        0.63779       -2.16862
H         -2.77020       -0.88322        1.87959
H         -2.81639        0.67513        1.04945
H         -0.58314        0.30984        1.93533
H         -0.42887       -1.22148        1.06952
H          1.08319        1.56641        0.83044
H          1.14903        1.63135       -0.91215
H          1.86402       -0.82706        0.78573
H          1.92365       -0.76797       -0.97706
H          3.45588        1.52039        0.04273
H          5.24830        2.14087       -1.16146
H          7.43730        3.28796       -1.06351
H          9.04824        0.09242        1.28679
H          6.86704       -1.07069        1.23367
H          5.38736       -2.16052       -0.57871
H          3.66126       -2.22690       -0.24564
H          4.80057       -2.11743        1.09478
H         -0.45734        0.51670       -2.22749
H         -0.31693       -1.08818       -1.51196
