36
47.3249
C          3.96400        1.98045       -0.02594
C          5.03277        0.99615        0.32734
C          3.59478        0.61111        0.43630
N          3.08337       -0.32249       -0.57146
C          1.63509       -0.27137       -0.70253
C          0.87651       -1.00175        0.42668
C         -0.61284       -1.25726        0.04783
N         -1.12658       -2.20186        1.07881
C         -1.42770        0.05269       -0.05602
C         -2.88597       -0.17769       -0.47262
C         -3.65505        1.14026       -0.61639
C         -5.12091        0.91778       -0.97839
O          0.92290       -0.26314        1.63553
O          1.48768       -2.27261        0.67229
H          3.76518        2.80730        0.64953
H          3.81236        2.20632       -1.07472
H          5.59222        1.13568        1.24647
H          5.60111        0.55798       -0.48523
H          3.18516        0.51919        1.43700
H          3.34546       -1.28057       -0.30616
H          1.31016        0.76897       -0.76134
H          1.39919       -0.76127       -1.65515
H         -0.63603       -1.77491       -0.91131
H         -1.31068       -1.66074        1.93133
H         -2.01203       -2.59943        0.78116
H         -1.39699        0.58645        0.89728
H         -0.95309        0.71085       -0.79802
H         -3.38215       -0.80296        0.27525
H         -2.91324       -0.72490       -1.42173
H         -3.18395        1.76075       -1.38629
H         -3.59662        1.69896        0.32358
H         -5.63479        0.32612       -0.21404
H         -5.65045        1.87557       -1.06707
H         -5.22128        0.39481       -1.93472
H          1.37075       -0.87519        2.25754
H          0.74165       -2.79926        1.01521
