61
40.6879
N          9.02291        0.31189       -1.54822
C          8.11477        1.20359       -1.98921
C          6.81712        1.28934       -1.51121
C          6.38428        0.40468       -0.51711
C          7.31795       -0.53188       -0.06256
C          8.59984       -0.53618       -0.59012
N          5.09436        0.45116       -0.01123
C          4.03689        1.15815       -0.72161
C          2.68972        0.54447       -0.35999
C          2.37766        0.68088        1.13787
C          3.67646        0.69621        1.96308
C          4.77061       -0.13234        1.29121
C          1.49365       -0.47485        1.56117
O          1.97820       -1.45953        2.15781
N          0.16195       -0.44814        1.25319
C         -0.55320        0.63695        0.57064
C         -1.17887        0.15785       -0.73779
N         -1.72611       -1.20298       -0.59420
C         -1.94934       -1.67256        0.78760
C         -0.63749       -1.63785        1.56747
S         -2.79953       -1.73475       -1.75222
O         -2.32262       -1.25977       -3.03800
O         -3.04764       -3.13480       -1.50449
C         -4.27825       -0.81847       -1.34301
C         -5.09736       -1.22415       -0.28405
C         -6.23215       -0.47117        0.05563
C         -6.55784        0.68923       -0.68811
C         -5.72854        1.07087       -1.75715
C         -4.59652        0.31744       -2.08152
C         -7.69922        1.43214       -0.34327
C         -8.50165        1.02788        0.72658
C         -8.18050       -0.11052        1.46209
C         -7.05097       -0.85733        1.12876
Cl        -9.89674        1.94435        1.14296
H          8.46607        1.88122       -2.76172
H          6.16656        2.05786       -1.91100
H          7.05645       -1.27481        0.68172
H          9.33879       -1.25330       -0.24463
H          4.06640        2.22542       -0.47248
H          4.18447        1.05269       -1.80047
H          2.72266       -0.52319       -0.61918
H          1.89392        0.98743       -0.96340
H          1.84495        1.61771        1.34742
H          4.02446        1.73319        2.06422
H          3.50052        0.31744        2.97581
H          4.44179       -1.17057        1.17132
H          5.65727       -0.12352        1.93099
H         -1.34505        0.97802        1.25104
H          0.09360        1.49292        0.39221
H         -0.42243        0.12305       -1.52936
H         -1.95983        0.85986       -1.03995
H         -2.70596       -1.04628        1.27549
H         -2.31707       -2.69887        0.76100
H         -0.82252       -1.64938        2.65029
H         -0.03735       -2.52669        1.33931
H         -4.84471       -2.11629        0.28480
H         -5.95812        1.95783       -2.34435
H         -3.95465        0.62774       -2.90751
H         -7.96923        2.32627       -0.90473
H         -8.81442       -0.41721        2.29523
H         -6.80841       -1.74835        1.70697
