39
3.13799
N         -2.86221        1.39289       -1.28566
C         -1.57109        1.16253       -1.58269
N         -0.68653        0.46946       -0.82871
C         -1.07228       -0.10220        0.33280
C         -2.40681        0.06911        0.72166
C         -3.20443        0.81166       -0.12823
O         -4.45112        0.86085        0.42430
C         -4.33380        0.13438        1.57812
N         -3.13416       -0.36472        1.81116
C         -5.56213        0.01108        2.39039
N         -0.15862       -0.79169        1.10743
C          1.08626       -1.35012        0.58771
C          0.97311       -2.14883       -0.72065
C          1.09092       -1.44059       -2.05246
O          0.23515       -1.53548       -2.92824
O          2.27466       -0.85302       -2.31670
C          2.27789       -0.40878        0.67863
C          3.56879       -0.95046        0.82805
C          4.69750       -0.12885        0.80573
C          4.55674        1.24743        0.64689
C          3.28947        1.80247        0.51558
C          2.16154        0.98193        0.53338
C         -1.03476        1.73966       -2.85663
H         -5.92093        0.99909        2.69295
H         -5.37172       -0.57709        3.29248
H         -6.35034       -0.48542        1.81671
H         -0.58654       -1.27417        1.89259
H          1.31468       -2.12271        1.33973
H          0.01434       -2.68493       -0.72914
H          1.74410       -2.93196       -0.73887
H          2.91320       -0.81984       -1.58115
H          3.70699       -2.02391        0.94550
H          5.68958       -0.56162        0.90873
H          5.43337        1.88973        0.62920
H          3.17033        2.87667        0.39038
H          1.19096        1.45456        0.41644
H         -0.60699        0.94673       -3.47629
H         -0.25141        2.47017       -2.63228
H         -1.82373        2.23599       -3.42886
