25
37.0976
O         -1.36110       -3.68355       -1.43561
C         -0.64456       -2.75697       -0.75458
O          0.50105       -2.96746       -0.37520
C         -1.33316       -1.48794       -0.52381
N         -2.54959       -1.25898       -1.03761
O         -2.86689        0.04736       -0.69053
C         -1.85403        0.58491        0.03952
C         -0.85708       -0.35139        0.19945
C          0.45432       -0.20410        0.89454
C          1.58485        0.19907       -0.05731
N          2.91236        0.00488        0.59675
C          1.44992        1.67564       -0.41254
O          0.65962        2.12434       -1.23609
O          2.25855        2.47756        0.31485
C         -1.98608        1.99867        0.45371
H         -2.23616       -3.30451       -1.65978
H          0.37933        0.52083        1.71276
H          0.70220       -1.17022        1.35032
H          1.51113       -0.38424       -0.98921
H          3.60531       -0.22685       -0.12676
H          2.87447       -0.82345        1.20043
H          2.82556        1.87262        0.84522
H         -2.99123        2.21585        0.82308
H         -1.26958        2.22759        1.25028
H         -1.76922        2.67034       -0.38187
