25
46.4798
O         -1.26296       -3.72451       -1.28312
C         -0.71043       -2.91100       -0.33938
O          0.12154       -3.32264        0.46407
C         -1.23820       -1.54303       -0.36427
N         -2.28044       -1.24747       -1.16219
O         -2.54534        0.09223       -0.95486
C         -1.66733        0.60046       -0.05419
C         -0.79248       -0.38758        0.34570
C          0.38348       -0.26661        1.26114
C          1.58581        0.49472        0.67639
N          1.34251        1.95868        0.64059
C          1.99712       -0.00911       -0.71689
O          1.68636       -1.05545       -1.26155
O          2.85884        0.83586       -1.33587
C         -1.80562        2.03885        0.25741
H         -1.90120       -3.19229       -1.80471
H          0.72381       -1.26191        1.56536
H          0.05738        0.21679        2.19448
H          2.45137        0.32422        1.33061
H          2.12017        2.38939        0.13097
H          1.37298        2.33011        1.58762
H          3.02536        0.39114       -2.19379
H         -1.52438        2.23818        1.29536
H         -2.83555        2.37838        0.11915
H         -1.16281        2.63259       -0.39804
