50
75.3541
O          7.09959        0.30907        0.60699
C          6.23021        0.83410       -0.27856
O          6.53860        1.77403       -1.00202
C          4.87403        0.16204       -0.29501
C          4.06302        0.61374        0.91849
C          2.69368       -0.07495        0.94599
C          1.87391        0.21715       -0.33985
C          2.71524       -0.18918       -1.57706
C          4.10262        0.47431       -1.58784
C          1.62567        1.67659       -0.40099
N          1.43463        2.82422       -0.43537
C          0.54733       -0.55649       -0.31757
C          0.52748       -1.95357       -0.18606
C         -0.68127       -2.65659       -0.15574
C         -1.89561       -1.97685       -0.25699
O         -3.13040       -2.55561       -0.25198
C         -3.18768       -3.96011       -0.10169
C         -1.88701       -0.59119       -0.37785
C         -0.68727        0.10889       -0.42973
O         -3.04142        0.12597       -0.56862
C         -3.79779        0.31946        0.63926
C         -5.16954        0.84914        0.21810
C         -4.92231        2.32827       -0.10907
C         -3.65179        2.72538        0.65948
C         -3.23654        1.48375        1.45235
H          6.74217       -0.45273        1.10951
H          5.03464       -0.92262       -0.25547
H          4.60872        0.40189        1.84338
H          3.92951        1.70348        0.88745
H          2.85789       -1.15458        1.06273
H          2.13713        0.25313        1.83325
H          2.86189       -1.27776       -1.59345
H          2.17625        0.06463       -2.49944
H          3.99570        1.56214       -1.70417
H          4.66555        0.13211       -2.46398
H          1.45745       -2.51209       -0.10889
H         -0.64146       -3.73560       -0.05574
H         -2.75046       -4.27600        0.85110
H         -4.24598       -4.22714       -0.10275
H         -2.69850       -4.46594       -0.93936
H         -0.74654        1.18841       -0.54240
H         -3.88967       -0.59942        1.22915
H         -5.57106        0.30106       -0.64142
H         -5.89072        0.76683        1.04062
H         -5.78299        2.94889        0.16594
H         -4.77036        2.46730       -1.18736
H         -2.86028        3.00670       -0.04674
H         -3.81197        3.58946        1.31362
H         -3.69174        1.50209        2.44965
H         -2.15257        1.42418        1.58612
