40
49.326
O          6.40117        0.63455        3.21449
C          5.66294        1.31155        2.47840
C          5.96345        2.75247        2.18651
C          4.45266        0.68712        1.86908
C          4.18248       -0.65579        2.14815
C          3.05867       -1.28050        1.59693
C          2.19001       -0.56897        0.76115
C          2.46153        0.77097        0.48507
C          3.58624        1.39740        1.03421
N          1.08217       -1.26803        0.24180
C          0.06257       -0.76670       -0.55360
O         -0.01357        0.40507       -0.89067
C         -0.92330       -1.77695       -0.96582
C         -0.64893       -3.14944       -1.22475
N         -1.71968       -3.85007       -1.58357
N         -2.70164       -2.93886       -1.55599
C         -2.29190       -1.65382       -1.24274
C         -3.26792       -0.54293       -1.26488
C         -2.86695        0.77332       -1.53310
C         -3.78973        1.82097       -1.60158
Cl        -3.25192        3.42556       -1.93615
C         -5.14111        1.56267       -1.39938
O         -6.09844        2.53934       -1.44590
C         -5.57797        0.27068       -1.13679
C         -4.64697       -0.76844       -1.07543
O         -5.08786       -2.04476       -0.82647
H          5.15009        3.39349        2.53600
H          6.11886        2.90374        1.11525
H          6.88047        3.03724        2.71361
H          4.85639       -1.21053        2.79846
H          2.87106       -2.32690        1.82791
H          1.80535        1.34676       -0.15888
H          3.76127        2.44152        0.79334
H          0.99988       -2.22419        0.54848
H          0.30199       -3.66626       -1.18353
H         -3.65295       -3.24742       -1.75302
H         -1.82804        1.00563       -1.71127
H         -5.65297        3.38596       -1.63761
H         -6.63796        0.09855       -0.98492
H         -6.04945       -2.02397       -0.68278
