50
69.0836
O          6.85337        1.28101       -0.99629
C          6.12176        0.33920       -0.35819
O          6.57189       -0.26457        0.59149
C          4.74644        0.17409       -0.98548
C          4.04950       -1.08765       -0.43882
C          3.20590       -0.74290        0.79202
C          2.02285        0.20203        0.44769
C          2.40240        1.09620       -0.76811
C          3.90189        1.42996       -0.74330
C          1.80441        1.07845        1.63310
N          1.64983        1.78097        2.54356
C          0.70316       -0.52833        0.12082
C          0.63152       -1.90767       -0.14419
C         -0.59278       -2.52007       -0.44337
C         -1.76587       -1.76569       -0.49252
O         -3.00716       -2.24285       -0.79464
C         -3.12687       -3.62733       -1.05120
C         -1.70297       -0.39929       -0.22091
C         -0.48779        0.21283        0.06878
O         -2.79711        0.41149       -0.35796
C         -3.72703        0.29669        0.73306
C         -5.12200        0.57554        0.17645
C         -5.10369        2.08339       -0.08987
C         -4.13286        2.67252        0.94480
C         -3.52478        1.47454        1.68393
H          7.69748        1.31792       -0.50459
H          4.91271        0.02974       -2.06416
H          3.39873       -1.50273       -1.22250
H          4.77210       -1.86921       -0.19368
H          2.86297       -1.64461        1.31191
H          3.87172       -0.24286        1.51562
H          1.82155        2.01644       -0.77676
H          2.18640        0.57306       -1.71158
H          4.15744        1.87972        0.22675
H          4.14118        2.18565       -1.49917
H          1.51570       -2.54155       -0.12721
H         -0.59682       -3.58814       -0.63978
H         -2.83234       -4.22099       -0.17987
H         -2.55043       -3.91495       -1.93474
H         -4.18393       -3.81439       -1.25217
H         -0.48172        1.28294        0.26337
H         -3.68391       -0.66916        1.25253
H         -5.89711        0.33646        0.91551
H         -5.32623        0.00052       -0.73258
H         -4.73259        2.28392       -1.10318
H         -6.10281        2.52686       -0.02662
H         -3.35147        3.25604        0.44273
H         -4.63680        3.35453        1.63836
H         -4.06510        1.30484        2.62330
H         -2.47076        1.63742        1.92766
