40
50.44
O          5.12147        2.94361        2.96797
C          5.37622        2.08870        2.10862
C          6.78783        1.83705        1.65519
C          4.27712        1.28564        1.50169
C          4.51093        0.30712        0.53101
C          3.44151       -0.41762       -0.00565
C          2.13022       -0.17439        0.41730
C          1.89784        0.79945        1.38321
C          2.96475        1.52603        1.92369
N          1.11109       -0.95270       -0.17027
C         -0.24822       -0.87625        0.06537
O         -0.77748       -0.05299        0.81115
C         -1.05003       -1.86595       -0.66560
C         -0.66003       -3.16787       -1.09888
N         -1.64221       -3.83005       -1.71285
N         -2.67112       -2.96853       -1.68392
C         -2.38156       -1.76000       -1.07940
C         -3.39684       -0.69907       -0.96217
C         -3.73191       -0.18109        0.30204
C         -4.76939        0.74871        0.45116
Cl        -5.16489        1.34914        2.02027
C         -5.48314        1.17740       -0.66612
O         -6.51898        2.06847       -0.58004
C         -5.14825        0.71001       -1.93106
C         -4.10449       -0.20885       -2.07484
O         -3.83813       -0.58788       -3.36420
H          6.88857        2.03530        0.58475
H          7.08103        0.80510        1.86592
H          7.46034        2.50850        2.19900
H          5.51294        0.08937        0.17614
H          3.64824       -1.17638       -0.75821
H          0.88903        1.00837        1.72645
H          2.78485        2.28887        2.67979
H          1.41962       -1.59639       -0.88140
H          0.28991       -3.67618       -0.97413
H         -3.55637       -3.27639       -2.08258
H         -3.17977       -0.49504        1.18496
H         -6.63062        2.30985        0.35927
H         -5.68960        1.05589       -2.80794
H         -2.95048       -0.97897       -3.41571
