25
40.8564
O         -1.76971       -3.59028       -0.78627
C         -0.94804       -2.51661       -0.91936
O          0.14002       -2.62620       -1.44677
C         -1.50243       -1.28803       -0.36148
N         -2.69243       -1.27727        0.26228
O         -2.90098        0.02167        0.67922
C         -1.84252        0.78649        0.30910
C         -0.91300        0.00934       -0.34902
C          0.42092        0.43969       -0.86653
C          1.57264       -0.01185        0.04206
N          1.48773        0.44935        1.46009
C          2.91356        0.45040       -0.53018
O          3.16486        0.56047       -1.72544
O          3.83494        0.69684        0.43365
C         -1.88356        2.20848        0.69345
H         -1.29070       -4.33345       -1.19538
H          0.57584        0.02957       -1.87402
H          0.43729        1.53092       -0.98111
H          1.60959       -1.10292        0.05176
H          1.05396        1.37953        1.47999
H          0.82804       -0.16648        1.94980
H          3.36922        0.59583        1.29567
H         -1.14739        2.78224        0.12237
H         -2.86948        2.63938        0.50225
H         -1.64835        2.33290        1.75387
