25
41.9775
O         -0.92250       -3.35614       -1.75135
C         -0.30862       -2.53102       -0.85795
O          0.79945       -2.80300       -0.39479
C         -1.06951       -1.32129       -0.53219
N         -2.23664       -1.06871       -1.16039
O         -2.66426        0.16452       -0.69492
C         -1.77757        0.64006        0.21366
C         -0.75392       -0.26661        0.38090
C          0.43833       -0.09083        1.27207
C          1.57781        0.71259        0.62438
N          1.10858        2.04001        0.15391
C          2.16417       -0.10943       -0.52056
O          1.90362        0.01194       -1.70649
O          2.95126       -1.10499       -0.05979
C         -2.02253        1.99160        0.76573
H         -1.77662       -2.94935       -2.01320
H          0.12265        0.43365        2.18386
H          0.79913       -1.07050        1.60459
H          2.37230        0.88180        1.35922
H          0.61269        1.89228       -0.73186
H          1.91023        2.61882       -0.08774
H          3.00114       -1.76413       -0.78447
H         -1.76660        2.75801        0.02613
H         -3.06452        2.12303        1.06278
H         -1.39806        2.16768        1.64846
