57
47.893
C         -2.03037       -0.46033       -0.88350
C         -2.84893       -1.29407        0.10539
C         -2.73805       -2.79343       -0.29136
O         -1.77288       -3.53250       -0.17165
N         -3.93749       -3.16045       -0.85931
C         -4.89585       -2.09896       -0.90378
N         -4.31422       -1.05663       -0.07689
C         -4.94763        0.16508       -0.01180
C         -4.43219        1.25554        0.70335
C         -5.09711        2.48737        0.75682
C         -6.30664        2.65438        0.09854
C         -6.84742        1.58645       -0.60228
C         -6.18496        0.36535       -0.64730
C         -2.35781       -1.13735        1.54472
C         -1.04482       -0.34504        1.60982
N         -0.09149       -0.88432        0.64550
C          1.26624       -0.37617        0.86628
C          2.30634       -1.16918        0.06455
C          3.70691       -0.67194        0.27922
C          4.27004        0.40286       -0.33651
C          5.69845        0.72628       -0.08333
C          6.13470        2.05873       -0.07866
C          7.47278        2.37829        0.13815
C          8.38339        1.35392        0.33899
C          8.00182        0.02638        0.32284
C          6.66373       -0.28909        0.10262
F          9.67587        1.66361        0.55109
C          3.48471        1.33783       -1.21291
C         -0.53243       -0.73519       -0.74384
H         -2.34601       -0.64762       -1.91163
H         -2.20171        0.60978       -0.69878
H         -4.04624       -4.07362       -1.26341
H         -5.01507       -1.77917       -1.94707
H         -5.85956       -2.44472       -0.51266
H         -3.50224        1.18464        1.24127
H         -4.65471        3.30530        1.31947
H         -6.82564        3.61114        0.13589
H         -7.80245        1.69369       -1.12051
H         -6.65551       -0.43091       -1.20491
H         -2.17660       -2.12438        1.98838
H         -3.10661       -0.66699        2.18791
H         -0.63656       -0.44113        2.62188
H         -1.20859        0.72711        1.43327
H          1.51084       -0.46744        1.93057
H          1.32256        0.69063        0.61511
H          2.06191       -1.15086       -1.00438
H          2.25910       -2.22778        0.35974
H          4.29192       -1.22278        1.00854
H          5.42376        2.86519       -0.23381
H          7.80545        3.41206        0.15313
H          8.74447       -0.75261        0.47522
H          6.37320       -1.33817        0.06543
H          4.07327        1.65332       -2.08068
H          2.56579        0.89167       -1.59825
H          3.19308        2.23673       -0.65452
H         -0.27954       -1.65162       -1.29056
H          0.00697        0.08111       -1.23939
