61
43.7371
N          8.14354       -2.21120       -1.66086
C          7.49939       -1.46933       -2.57831
C          6.43819       -0.62464       -2.28349
C          5.99001       -0.49638       -0.96201
C          6.63591       -1.29251       -0.01388
C          7.68777       -2.10879       -0.39902
N          4.92079        0.32640       -0.60998
C          4.95789        1.06620        0.65716
C          3.54924        1.10188        1.26034
C          2.46185        1.05766        0.17621
C          2.96882        1.74841       -1.09263
C          4.14262        0.97110       -1.67692
C          1.20220        1.74687        0.66084
O          1.04425        2.95744        0.48611
N          0.26747        0.98332        1.32764
C         -1.02276        1.59280        1.66774
C         -2.17927        0.67494        1.26200
N         -2.09638       -0.66754        1.93616
C         -0.73118       -0.97454        2.47816
C          0.36356       -0.46946        1.53504
S         -2.74442       -1.99329        1.08119
O         -1.93526       -2.18654       -0.10369
O         -2.93159       -3.06415        2.03640
C         -4.33174       -1.40153        0.58555
C         -4.48591       -0.85441       -0.69220
C         -5.72018       -0.33003       -1.07972
C         -6.81169       -0.39138       -0.17795
C         -6.63916       -0.97105        1.08667
C         -5.40061       -1.47847        1.47368
C         -8.04949        0.13703       -0.57796
C         -8.19884        0.71285       -1.84152
C         -7.12517        0.77623       -2.72209
C         -5.88976        0.25640       -2.34537
Cl        -9.72510        1.35373       -2.31334
H          7.86159       -1.56661       -3.59785
H          5.99214       -0.07304       -3.10121
H          6.31171       -1.32096        1.02049
H          8.20492       -2.73040        0.32942
H          5.65272        0.66139        1.39895
H          5.29879        2.09039        0.45611
H          3.41794        0.25708        1.94695
H          3.45307        2.00430        1.87834
H          2.24114        0.01698       -0.08579
H          3.29119        2.77028       -0.85108
H          2.17549        1.84663       -1.84272
H          4.76863        1.65754       -2.25811
H          3.74621        0.20168       -2.35146
H         -1.13874        2.56645        1.18113
H         -1.03247        1.76473        2.75041
H         -2.16252        0.56506        0.17181
H         -3.12862        1.14078        1.54926
H         -0.64101       -0.48908        3.45657
H         -0.61356       -2.04834        2.65335
H          1.34757       -0.71694        1.94031
H          0.27864       -0.94856        0.55181
H         -3.63706       -0.81955       -1.37389
H         -7.47070       -1.02929        1.78742
H         -5.27239       -1.92036        2.45990
H         -8.90228        0.10191        0.09785
H         -7.24293        1.22764       -3.70604
H         -5.05446        0.31226       -3.04189
