45
2.36681
O         -4.78050       -0.97155        1.33550
N         -4.99412       -0.61232        0.03989
C         -3.79122       -0.40745       -0.53504
C         -2.75605       -0.57825        0.46523
C         -1.30529       -0.42892        0.40500
O         -0.66202       -0.70877       -0.59749
N         -0.73230        0.05290        1.57601
C          0.62316        0.26056        1.76522
C          1.15844        0.76566        2.92942
N          2.52156        0.85099        2.77656
C          3.43043        1.34786        3.79406
C          2.88119        0.40557        1.52150
C          1.70311        0.03361        0.88754
C          4.23190        0.34823        1.01087
O          5.23412        0.67377        1.62817
O          4.23316       -0.11811       -0.26166
C          5.53057       -0.20291       -0.85552
C          5.35114       -0.74798       -2.25635
C         -3.45668       -0.98477        1.59192
C         -3.10017       -1.42569        2.95667
C         -3.78028       -0.02556       -1.96599
C         -4.98551        0.37017       -2.58525
C         -5.03726        0.73892       -3.93421
C         -3.88157        0.71337       -4.70357
C         -2.68493        0.30917       -4.12412
C         -2.64068       -0.05984       -2.77343
H         -1.32935        0.31424        2.34623
H          0.69309        1.07799        3.85368
H          4.10776        2.08051        3.34945
H          2.85244        1.83562        4.58264
H          3.98612        0.50263        4.20880
H          1.65126       -0.35941       -0.12130
H          5.98823        0.79285       -0.89463
H          6.16740       -0.87542       -0.26728
H          4.86757       -1.73019       -2.22462
H          4.69277       -0.09341       -2.83747
H          6.31030       -0.83963       -2.77147
H         -3.81111       -2.16496        3.32899
H         -2.10550       -1.87789        2.98389
H         -3.11034       -0.56820        3.64273
H         -5.91628        0.39053       -2.01957
H         -5.98265        1.04179       -4.37645
H         -3.91267        0.99814       -5.75128
H         -1.77519        0.27011       -4.71922
H         -1.68405       -0.39396       -2.40405
