34
115.385
C         -1.24534       -0.38878       -0.52408
N          0.08747        0.17776       -0.27089
C          1.17053       -0.79994       -0.43577
C          2.52853       -0.16686       -0.23283
C          2.71716        0.91336        0.65094
C          3.98059        1.46825        0.84289
C          5.08011        0.94657        0.17343
C          4.91799       -0.13645       -0.69196
C          3.65310       -0.69051       -0.88920
C         -1.76450       -1.26260        0.64554
O         -1.14730       -0.87202        1.88395
C         -3.28037       -0.98671        0.74689
O         -3.57340       -0.23959        1.94272
C         -3.61253       -0.09745       -0.45868
O         -4.72928        0.74376       -0.18818
C         -2.32152        0.70617       -0.63104
S         -2.25167        1.61586       -2.20747
H         -1.24986       -0.98541       -1.44881
H          0.24954        0.93089       -0.95031
H          1.12109       -1.22879       -1.44476
H          1.06950       -1.61751        0.28821
H          1.87347        1.33500        1.19155
H          4.10451        2.31244        1.52082
H          6.06691        1.37715        0.32512
H          5.78001       -0.54832       -1.21018
H          3.54800       -1.53874       -1.56490
H         -1.54581       -2.32070        0.46582
H         -0.39480       -0.29633        1.61906
H         -3.88001       -1.89970        0.76273
H         -2.76291       -0.32517        2.49536
H         -3.82627       -0.71029       -1.34255
H         -4.73039        0.86095        0.78668
H         -2.22545        1.44635        0.17371
H         -3.40709        2.27733       -2.02380
