36
47.6358
C          4.62690        0.98716       -0.15314
C          3.51875        1.62729       -0.93471
C          3.50396        0.14638       -0.70020
N          2.58745       -0.47397        0.24163
C          1.15884       -0.24571       -0.07033
C          0.33486       -0.98249        1.01125
C         -1.21163       -0.89567        0.83121
N         -1.82246       -1.62705        1.97907
C         -1.76937        0.54090        0.81325
C         -3.18609        0.63837        0.22599
C         -3.21807        0.94860       -1.27659
C         -2.51752       -0.07592       -2.15363
O          0.68550       -0.49118        2.30228
O          0.71021       -2.36558        0.98782
H          4.67318        1.17904        0.90753
H          5.59893        0.88924       -0.62935
H          2.82505        2.25932       -0.39188
H          3.72760        1.96761       -1.94323
H          3.74139       -0.48107       -1.55751
H          2.73023       -0.14545        1.20422
H          0.93145       -0.64275       -1.06390
H          0.95464        0.82940       -0.04890
H         -1.48312       -1.43655       -0.07763
H         -2.82842       -1.70039        1.84346
H         -1.45950       -2.58758        1.92934
H         -1.11610        1.22025        0.25861
H         -1.79150        0.92895        1.84062
H         -3.70936        1.45845        0.73503
H         -3.76591       -0.26830        0.42984
H         -4.26572        1.02160       -1.59204
H         -2.76998        1.93391       -1.45403
H         -2.91670       -1.08036       -1.98385
H         -1.44019       -0.08789       -1.96993
H         -2.66187        0.17057       -3.21054
H         -0.04700       -0.83197        2.86066
H          1.67159       -2.32717        0.80957
