46
102.797
O          2.30904       -2.55744       -0.18462
C          2.33773       -1.33676       -0.04496
N          1.20330       -0.51692       -0.14031
C         -0.00618       -1.09286       -0.77890
C         -1.10649       -0.01727       -0.96101
N         -1.34733        0.75255        0.26654
C         -0.15153        1.35939        0.86132
C          0.91531        0.27543        1.07285
C          0.37998        2.53360        0.03603
C         -2.59372        1.21419        0.67695
O         -2.73638        2.22856        1.35688
C         -3.80173        0.41885        0.34541
C         -4.99291        1.09535        0.06654
C         -6.15037        0.37305       -0.22617
C         -6.12065       -1.02151       -0.23129
C         -4.94402       -1.70089        0.08209
C         -3.78944       -0.98247        0.39194
C          0.26289       -1.70815       -2.15987
C          3.64565       -0.67119        0.21616
C          4.66528       -1.41800        0.81499
C          5.89767       -0.82230        1.08641
C          6.11491        0.51666        0.76044
C          5.10928        1.25963        0.14195
C          3.88085        0.66203       -0.14428
H         -0.37604       -1.87789       -0.10579
H         -0.79751        0.70860       -1.72410
H         -2.02299       -0.46482       -1.34983
H         -0.41632        1.75292        1.85091
H          1.82272        0.71626        1.49406
H          0.55543       -0.44234        1.82358
H          0.73505        2.21684       -0.94987
H          1.21870        3.01511        0.55000
H         -0.39945        3.28629       -0.12048
H         -5.02011        2.18292        0.08702
H         -7.07595        0.89992       -0.44238
H         -7.02307       -1.58164       -0.46332
H         -4.92780       -2.78818        0.09406
H         -2.88811       -1.52058        0.67177
H          0.94437       -2.56129       -2.11562
H         -0.66923       -2.07573       -2.60407
H          0.70008       -0.97079       -2.84164
H          4.50233       -2.46294        1.06701
H          6.68764       -1.40386        1.55502
H          7.07295        0.97994        0.98103
H          5.28273        2.30070       -0.11767
H          3.11347        1.24701       -0.64476
