25
40.7306
O         -1.49889       -3.77699       -0.47013
C         -0.72156       -2.66976       -0.62009
O          0.44741       -2.73896       -0.97199
C         -1.41688       -1.41788       -0.32247
N         -2.70913       -1.43191        0.05256
O         -3.05046       -0.10874        0.27252
C         -1.97928        0.68826        0.02331
C         -0.90814       -0.08792       -0.36065
C          0.47555        0.35857       -0.69606
C          1.48181        0.07558        0.42925
N          1.14448        0.84272        1.65860
C          2.88001        0.44645       -0.06238
O          3.54941        1.39392        0.31696
O          3.35015       -0.39881       -0.99837
C         -2.16737        2.13743        0.23322
H         -2.39494       -3.48897       -0.17992
H          0.78931       -0.13283       -1.62559
H          0.47730        1.43206       -0.92870
H          1.48872       -0.98585        0.70428
H          1.38300        1.82412        1.49633
H          1.77828        0.54785        2.40337
H          4.24686       -0.06873       -1.21830
H         -1.37815        2.71284       -0.25890
H         -2.14217        2.37650        1.30059
H         -3.12532        2.47106       -0.17743
