36
46.8453
C          3.76216        1.74404       -0.69460
C          4.93211        0.82766       -0.51545
C          3.77787        0.76041        0.43638
N          2.91536       -0.40521        0.33815
C          1.51612       -0.09553        0.68608
C          0.70443       -1.36865        0.37417
C         -0.81823       -1.20037        0.61812
N         -1.06223       -0.98694        2.05846
C         -1.44427       -0.07957       -0.23509
C         -2.97601       -0.03443       -0.15679
C         -3.55462        1.03296       -1.09286
C         -5.07120        1.12206       -0.98847
O          1.19080       -2.41972        1.21885
O          0.95327       -1.79723       -0.95967
H          3.08552        1.54816       -1.51783
H          3.87955        2.78959       -0.44599
H          5.85670        1.23964       -0.14596
H          5.05541        0.00704       -1.21299
H          3.92924        1.15265        1.43999
H          3.22323       -1.17351        0.94151
H          1.17186        0.74437        0.07296
H          1.43895        0.17605        1.74493
H         -1.28905       -2.15007        0.32711
H         -0.48796       -1.66994        2.56620
H         -2.03529       -1.21447        2.27626
H         -1.15269       -0.21540       -1.28150
H         -1.05287        0.89720        0.07878
H         -3.28563        0.18275        0.87055
H         -3.38688       -1.01533       -0.42400
H         -3.27922        0.80772       -2.12929
H         -3.12168        2.01043       -0.84887
H         -5.38359        1.37797        0.02910
H         -5.54379        0.17343       -1.26349
H         -5.45565        1.89595       -1.66141
H          1.15022       -3.19783        0.63738
H          1.85809       -1.46590       -1.14072
