45
0.750279
O         -4.60142       -2.43498       -0.77542
N         -5.04576       -1.13327       -0.72516
C         -3.96489       -0.37830       -0.48022
C         -2.78409       -1.18505       -0.40607
C         -1.42206       -0.73282       -0.17312
O         -1.20570        0.32124        0.41495
N         -0.43784       -1.56877       -0.68221
C          0.92189       -1.34064       -0.57337
C          1.88010       -2.17913       -1.10463
N          3.12102       -1.65190       -0.82327
C          4.37414       -2.25540       -1.22707
C          2.98031       -0.47900       -0.10918
C          1.61299       -0.28217        0.04936
C          4.07042        0.34516        0.35710
O          5.25881        0.11319        0.17790
O          3.58513        1.41776        1.03919
C          4.57523        2.31209        1.56226
C          5.10872        1.79015        2.88276
C         -3.25948       -2.47393       -0.56586
C         -2.66868       -3.82839       -0.54362
C         -4.08450        1.06939       -0.36635
C         -4.43238        1.65841        0.85578
C         -4.51257        3.04907        0.96799
C         -4.25466        3.85646       -0.13901
C         -3.92067        3.27504       -1.36205
C         -3.83687        1.88459       -1.47758
H         -0.70586       -2.37598       -1.22412
H          1.79262       -3.10341       -1.65892
H          4.86394       -2.66317       -0.33965
H          4.17393       -3.05694       -1.94212
H          4.99725       -1.49966       -1.70961
H          1.17287        0.56353        0.56614
H          4.08470        3.27864        1.71457
H          5.38084        2.47043        0.83730
H          5.82715        2.49217        3.31241
H          5.60419        0.82192        2.75381
H          4.29183        1.63408        3.59499
H         -2.32013       -4.10522       -1.54363
H         -1.81976       -3.88049        0.14508
H         -3.39949       -4.57566       -0.21904
H         -4.62972        1.03986        1.72794
H         -4.76792        3.50389        1.92199
H         -4.30963        4.93890       -0.04919
H         -3.71874        3.90450       -2.22514
H         -3.57526        1.44380       -2.43591
