36
50.3518
C          4.33001       -0.17100       -0.47351
C          5.07060       -0.21785        0.82772
C          3.73264        0.45866        0.75193
N          2.59952       -0.18146        1.43728
C          1.30343        0.45940        1.09825
C          0.78418        0.01145       -0.29788
C         -0.74661        0.26925       -0.48847
N         -1.11924        0.08221       -1.91695
C         -1.62221       -0.65920        0.37914
C         -3.03310       -0.12778        0.66389
C         -3.89285        0.07451       -0.58137
C         -5.34647        0.33129       -0.22382
O          1.48550        0.72224       -1.31044
O          1.08045       -1.36529       -0.51500
H          3.90568       -1.09246       -0.85240
H          4.68955        0.49634       -1.24871
H          5.94783        0.40992        0.93679
H          5.14148       -1.17556        1.33137
H          3.74629        1.54678        0.79578
H          2.73643       -0.09443        2.44638
H          0.60672        0.14480        1.87905
H          1.38025        1.55202        1.15530
H         -0.95086        1.31742       -0.23996
H         -0.80966       -0.85419       -2.18823
H         -0.54473        0.72500       -2.46519
H         -1.69501       -1.65396       -0.08174
H         -1.15028       -0.82907        1.35277
H         -2.95800        0.81813        1.21482
H         -3.52836       -0.83954        1.33589
H         -3.83490       -0.81028       -1.22540
H         -3.52346        0.93159       -1.15470
H         -5.77438       -0.52319        0.30940
H         -5.93252        0.49203       -1.13376
H         -5.44537        1.21864        0.40828
H          1.54053        0.06458       -2.02675
H          1.82691       -1.53103        0.10024
