50
69.634
O          5.86379        2.05298       -1.61775
C          4.97260        2.00195       -0.60877
O          5.22216        2.51408        0.46865
C          3.71140        1.26088       -0.99913
C          4.02627       -0.22844       -1.20757
C          2.77650       -1.08243       -0.98549
C          2.31237       -1.03390        0.50199
C          2.65724        0.35594        1.11039
C          2.60210        1.46371        0.05169
C          3.09070       -2.04064        1.27498
N          3.71718       -2.82790        1.84633
C          0.82178       -1.39812        0.55090
C          0.41148       -2.69957        0.20083
C         -0.93853       -3.06398        0.20560
C         -1.91917       -2.13537        0.55842
O         -3.25961       -2.39322        0.62497
C         -3.68685       -3.68967        0.24710
C         -1.52808       -0.83764        0.89362
C         -0.17812       -0.48005        0.91069
O         -2.41364        0.11418        1.32964
C         -3.22741        0.66920        0.29184
C         -4.30230        1.54402        0.95838
C         -4.33472        2.87001        0.19667
C         -3.50991        2.63467       -1.05846
C         -2.45464        1.64190       -0.60160
H          6.62771        2.53920       -1.24275
H          3.36217        1.70511       -1.94083
H          4.81768       -0.55571       -0.51937
H          4.42121       -0.38789       -2.21728
H          1.98133       -0.70898       -1.64776
H          2.97657       -2.11392       -1.30236
H          2.02159        0.59467        1.97040
H          3.67621        0.34333        1.52077
H          2.68189        2.44315        0.53290
H          1.62656        1.44794       -0.45036
H          1.14861       -3.45524       -0.07091
H         -1.18099       -4.08651       -0.06433
H         -3.42477       -3.90648       -0.79377
H         -3.28464       -4.45129        0.92321
H         -4.77697       -3.70303        0.33022
H          0.05323        0.53863        1.20753
H         -3.71855       -0.10473       -0.31346
H         -5.27840        1.04728        0.91514
H         -4.08289        1.71510        2.01853
H         -3.87399        3.65613        0.80762
H         -5.35397        3.19663       -0.03343
H         -4.13545        2.19648       -1.84464
H         -3.07361        3.55884       -1.45022
H         -1.97875        1.13194       -1.44537
H         -1.66436        2.14679       -0.03340
