50
64.4284
O          6.07014        2.79901       -0.30845
C          5.95021        1.46006       -0.19704
O          6.90508        0.72333       -0.37306
C          4.53528        1.05396        0.13926
C          3.64478        1.19617       -1.09374
C          2.20667        0.79139       -0.77443
C          2.10259       -0.66563       -0.27127
C          3.02935       -0.80200        0.97000
C          4.47843       -0.37920        0.67904
C          2.57831       -1.56686       -1.34132
N          3.00083       -2.28724       -2.16364
C          0.67048       -1.05984        0.10187
C          0.39542       -2.40155        0.42880
C         -0.88946       -2.81373        0.78655
C         -1.93275       -1.89119        0.81580
O         -3.22294       -2.16403        1.16218
C         -3.53404       -3.49893        1.50573
C         -1.68023       -0.56452        0.46363
C         -0.39532       -0.14737        0.12138
O         -2.64554        0.40109        0.57122
C         -3.63104        0.35438       -0.47550
C         -4.95008        0.84486        0.12084
C         -4.72771        2.35329        0.29413
C         -3.71426        2.75099       -0.79369
C         -3.32234        1.44541       -1.50007
H          7.00493        2.95763       -0.55784
H          4.17878        1.73445        0.92317
H          3.66404        2.22828       -1.45823
H          4.03039        0.57322       -1.91022
H          1.82405        1.47108        0.00135
H          1.58208        0.93196       -1.66618
H          3.02690       -1.82841        1.35990
H          2.64001       -0.16222        1.77777
H          4.92943       -1.06623       -0.05040
H          5.08347       -0.46935        1.59061
H          1.19221       -3.14443        0.39860
H         -1.04101       -3.85829        1.03875
H         -4.60171       -3.51404        1.73521
H         -2.97982       -3.81734        2.39322
H         -3.34720       -4.17957        0.66927
H         -0.25998        0.89911       -0.13485
H         -3.73448       -0.63415       -0.93989
H         -5.78323        0.66549       -0.57086
H         -5.18299        0.34708        1.06894
H         -5.66438        2.91732        0.22074
H         -4.31132        2.56428        1.28866
H         -4.12910        3.48039       -1.49950
H         -2.83349        3.22298       -0.33839
H         -3.93742        1.30719       -2.39855
H         -2.27204        1.44170       -1.80947
