35
-84.766
N         -4.57039        0.30524       -0.67303
C         -4.61487       -1.02991       -0.62028
N         -3.66985       -1.80351       -0.07187
C         -2.64731       -1.18358        0.52754
C         -2.52201        0.19586        0.58083
C         -3.52360        0.88606       -0.06032
C         -1.37514        0.90061        1.25824
C         -0.00698        0.65848        0.64100
C          1.12893        0.60076        1.46141
C          2.39736        0.38585        0.91604
C          2.56136        0.18495       -0.46242
C          1.43509        0.25334       -1.28510
C          0.17038        0.50226       -0.74402
O          3.83088       -0.08714       -0.89532
C          4.02313       -0.27508       -2.28966
O          3.43693        0.26516        1.80415
C          4.32251        1.38281        1.72726
N         -1.73839       -2.01302        1.19347
N         -5.70667       -1.64841       -1.18087
H         -3.52932        1.97846       -0.09473
H         -1.36706        0.58328        2.30615
H         -1.54764        1.98154        1.26849
H          1.03107        0.70694        2.54356
H          1.50200        0.10382       -2.35695
H         -0.68180        0.54100       -1.42103
H          3.47925       -1.15605       -2.64673
H          5.09069       -0.45200       -2.45964
H          3.74231        0.62103       -2.85370
H          5.14436        1.20241        2.42655
H          4.75923        1.51102        0.73212
H          3.81093        2.30056        2.03510
H         -0.77150       -1.76361        1.04401
H         -1.93889       -2.97415        0.93559
H         -6.15772       -1.06087       -1.86094
H         -5.49728       -2.60411       -1.42490
