45
76.5511
S         -0.49314        0.78341        1.00112
C         -0.94306        1.35031       -0.55638
C         -0.03076        0.94910       -1.51341
C          1.01857        0.16129       -0.96756
C          0.90197       -0.01652        0.39892
C          1.79823       -0.78276        1.34232
O          1.20854       -2.06874        1.53178
C          3.21407       -0.94147        0.82024
C          4.17623        0.04411        1.08761
C          5.46329       -0.04722        0.54563
C          5.80422       -1.12019       -0.27815
O          7.01582       -1.31861       -0.88057
C          8.02132       -0.34760       -0.62543
C          4.85297       -2.10342       -0.54934
C          3.57151       -2.01910       -0.00452
C         -2.19747        2.15681       -0.78375
O         -2.14076        3.30999        0.05653
C         -3.46596        1.35918       -0.55909
C         -4.24363        1.52663        0.59379
C         -5.39316        0.75995        0.80503
C         -5.78523       -0.19039       -0.13648
O         -6.88022       -1.00499       -0.04248
C         -7.67837       -0.85838        1.12572
C         -5.01861       -0.36484       -1.28954
C         -3.86869        0.40061       -1.50257
H         -0.12020        1.19294       -2.56336
H          1.82576       -0.25601       -1.55822
H          1.83963       -0.30010        2.32677
H          0.31511       -1.90847        1.87759
H          3.92481        0.90110        1.70944
H          6.17015        0.74126        0.77881
H          8.26885       -0.30835        0.44048
H          7.72165        0.63695       -0.99954
H          8.92278       -0.64947       -1.16672
H          5.10670       -2.93909       -1.19665
H          2.84082       -2.79011       -0.24256
H         -2.21477        2.53463       -1.81437
H         -1.28315        3.73041       -0.11411
H         -3.95170        2.25763        1.34634
H         -5.95333        0.93301        1.71701
H         -7.10554       -1.09757        2.02819
H         -8.10797        0.14728        1.18505
H         -8.50562       -1.57069        1.05795
H         -5.31608       -1.10702       -2.02638
H         -3.28555        0.23450       -2.40513
