40
53.9002
O          6.85396        0.79365        2.02449
C          5.75737        1.36837        2.11778
C          5.63465        2.71117        2.78122
C          4.53097        0.72349        1.56504
C          3.27059        1.32233        1.64177
C          2.14909        0.67699        1.10591
C          2.27126       -0.56653        0.49277
C          3.53315       -1.16789        0.41673
C          4.65582       -0.52499        0.94912
N          1.18390       -1.27399       -0.05601
C         -0.13230       -0.86425       -0.13653
O         -0.53550        0.24533        0.21067
C         -1.05556       -1.85666       -0.71123
C         -0.82556       -3.23984       -0.96109
N         -1.87614       -3.85931       -1.50149
N         -2.79524       -2.88992       -1.59912
C         -2.38227       -1.66314       -1.11732
C         -3.27018       -0.48873       -1.18193
C         -2.79538        0.73286       -1.69017
C         -3.65481        1.81739       -1.89475
Cl        -3.02511        3.29285       -2.53902
C         -5.00644        1.70046       -1.59272
O         -5.83646        2.76256       -1.82873
C         -5.49849        0.51482       -1.04888
C         -4.62926       -0.55751       -0.82933
O         -5.20705       -1.66743       -0.26732
H          6.62533        3.02822        3.12453
H          5.25753        3.45636        2.07582
H          4.96977        2.65427        3.64722
H          3.13203        2.29135        2.11201
H          1.18179        1.16567        1.17741
H          3.65821       -2.13984       -0.05571
H          5.63781       -0.99177        0.88898
H          1.42689       -2.15425       -0.47871
H          0.05773       -3.84136       -0.77697
H         -3.69413       -3.12998       -2.01312
H         -1.74362        0.85872       -1.93177
H         -6.74352        2.53157       -1.57403
H         -6.54338        0.39438       -0.78028
H         -4.53746       -2.16540        0.23476
