61
41.8536
N          9.03705        1.24633        1.51183
C          8.33134        2.02202        0.66433
C          7.09254        1.67658        0.14923
C          6.51532        0.44997        0.49074
C          7.24427       -0.36131        1.36717
C          8.46901        0.07117        1.84730
N          5.28347        0.05839       -0.01219
C          4.73985        0.65713       -1.23177
C          3.92007       -0.38687       -1.98840
C          2.71376       -0.85996       -1.15660
C          3.03665       -0.80692        0.34543
C          4.52245       -1.01278        0.61808
C          1.51338        0.01173       -1.43501
O          1.67326        1.19046       -1.81696
N          0.25379       -0.47239       -1.24533
C         -0.86748        0.46076       -1.46032
C         -2.20687       -0.19043       -1.15066
N         -2.20547       -0.83087        0.18899
C         -1.03514       -1.70375        0.46913
C         -0.09132       -1.80468       -0.72553
S         -2.60246        0.18761        1.48617
O         -1.85159        1.42264        1.34646
O         -2.53307       -0.60193        2.68676
C         -4.29994        0.52686        1.11456
C         -5.18803       -0.51314        0.82140
C         -6.52244       -0.21923        0.50311
C         -6.95433        1.13212        0.45516
C         -6.03062        2.15651        0.71719
C         -4.70409        1.85325        1.03131
C         -8.29151        1.42154        0.14379
C         -9.19159        0.38433       -0.11810
C         -8.77371       -0.94096       -0.07486
C         -7.44533       -1.24346        0.23369
Cl       -10.82838        0.75001       -0.49917
H          8.79678        2.96849        0.40460
H          6.58399        2.37911       -0.50065
H          6.88115       -1.33411        1.67596
H          9.04642       -0.54487        2.53039
H          5.55560        0.99224       -1.87907
H          4.11960        1.52507       -0.98287
H          4.56001       -1.25008       -2.21396
H          3.59454        0.02913       -2.94948
H          2.48021       -1.88523       -1.47546
H          2.44551       -1.54312        0.89553
H          2.74990        0.17988        0.73573
H          4.67737       -0.99250        1.70141
H          4.86314       -1.98391        0.23952
H         -0.83413        0.81701       -2.48914
H         -0.71000        1.33666       -0.81429
H         -3.01614        0.53725       -1.20066
H         -2.42550       -0.96572       -1.89177
H         -0.48457       -1.30524        1.32906
H         -1.41072       -2.69744        0.73686
H          0.79861       -2.35867       -0.44233
H         -0.57195       -2.36963       -1.53683
H         -4.84147       -1.54505        0.84945
H         -6.33611        3.20038        0.68489
H         -3.99086        2.65674        1.22603
H         -8.63984        2.45300        0.10394
H         -9.48299       -1.74444       -0.28052
H         -7.13139       -2.28570        0.26674
