46
105.795
O          3.04198        2.15941       -0.11087
C          2.63545        1.00192       -0.18912
N          1.65742        0.58611       -1.09882
C          0.84121       -0.62948       -0.89366
C         -0.67521       -0.33667       -1.03959
N         -1.04741        1.01606       -0.60016
C         -0.25753        2.13868       -1.15499
C          1.00231        1.63213       -1.89071
C         -1.12981        2.97373       -2.09740
C         -1.98615        1.30120        0.38539
O         -2.00308        2.36243        1.00511
C         -3.04789        0.30874        0.67756
C         -3.47152        0.15777        2.00021
C         -4.48226       -0.75312        2.30464
C         -5.07991       -1.50040        1.28839
C         -4.68297       -1.32683       -0.03732
C         -3.68165       -0.41003       -0.34561
C          1.22970       -1.73259       -1.87910
C          3.21270        0.00662        0.73964
C          3.97919       -1.05263        0.24307
C          4.50033       -2.00034        1.12535
C          4.27062       -1.87838        2.49664
C          3.52449       -0.80264        2.98962
C          3.00022        0.14291        2.11240
H          0.99941       -0.99575        0.12587
H         -1.21138       -1.10583       -0.47750
H         -0.98385       -0.41257       -2.08938
H          0.05392        2.77217       -0.31470
H          1.68827        2.46127       -2.09222
H          0.73515        1.19037       -2.85936
H         -1.52275        2.36079       -2.91694
H         -1.99206        3.39618       -1.57022
H         -0.56255        3.80395       -2.52993
H         -3.01857        0.75567        2.78843
H         -4.81126       -0.87109        3.33303
H         -5.86901       -2.20761        1.53087
H         -5.16288       -1.89668       -0.82984
H         -3.40200       -0.25658       -1.38515
H          0.58741       -2.61021       -1.74842
H          1.12980       -1.38944       -2.91474
H          2.26395       -2.05595       -1.74383
H          4.17352       -1.13534       -0.82190
H          5.09199       -2.82946        0.74482
H          4.68245       -2.61425        3.18305
H          3.35934       -0.70742        4.06122
H          2.42086        0.98319        2.49617
