46
105.622
O          2.04182       -2.69796       -0.08370
C          2.08715       -1.46734       -0.08436
N          1.24339       -0.69142       -0.85650
C          0.51823       -1.35294       -1.95981
C         -0.67316       -0.49770       -2.42035
N         -1.41196        0.02318       -1.26028
C         -0.65476        0.83855       -0.30699
C          0.85821        0.69241       -0.54623
C         -1.06824        2.31026       -0.40832
C         -2.77947       -0.15738       -1.21621
O         -3.43782       -0.47752       -2.21058
C         -3.49224        0.06322        0.06679
C         -3.09489       -0.60051        1.23308
C         -3.77485       -0.36204        2.42969
C         -4.85591        0.52239        2.45322
C         -5.26136        1.16290        1.28576
C         -4.58426        0.92937        0.08590
C          1.48147       -1.62637       -3.12011
C          3.12942       -0.79108        0.73191
C          3.80946        0.34549        0.27297
C          4.78274        0.94575        1.07129
C          5.09709        0.39892        2.31499
C          4.44645       -0.75605        2.75537
C          3.47154       -1.35573        1.95948
H          0.13979       -2.31755       -1.59355
H         -0.32294        0.36100       -3.00660
H         -1.33536       -1.08919       -3.05743
H         -0.86765        0.49186        0.70740
H          1.37363        1.05440        0.34267
H          1.16194        1.30450       -1.40328
H         -2.12762        2.45473       -0.17561
H         -0.49391        2.92009        0.29477
H         -0.90485        2.69982       -1.41891
H         -2.25895       -1.29230        1.21377
H         -3.46500       -0.87321        3.33820
H         -5.38489        0.70195        3.38928
H         -6.11146        1.84388        1.30353
H         -4.89675        1.42028       -0.82977
H          2.29569       -2.29307       -2.81221
H          1.94167       -0.69849       -3.47908
H          0.96216       -2.10034       -3.95838
H          3.58405        0.77150       -0.70060
H          5.30004        1.83562        0.72052
H          5.85718        0.86524        2.93724
H          4.70099       -1.19310        3.71739
H          2.97419       -2.26604        2.28360
