57
46.6969
C         -1.97831       -0.09314       -1.91566
C         -2.48052       -1.12126       -0.90092
C         -2.43740       -2.51083       -1.57204
O         -1.45660       -3.10565       -2.01465
N         -3.71238       -3.02171       -1.59565
C         -4.63131       -2.25281       -0.82605
N         -3.93918       -0.99203       -0.61162
C         -4.54314       -0.03633        0.18290
C         -5.80979       -0.27191        0.74015
C         -6.44243        0.65838        1.55041
C         -5.84353        1.87880        1.82777
C         -4.59969        2.15603        1.27475
C         -3.96698        1.20884        0.46146
C         -1.64626       -1.14888        0.38490
C         -0.14722       -1.17590        0.08262
N          0.28322       -0.11398       -0.81980
C          0.34929        1.22130       -0.22116
C          1.45013        1.33681        0.85070
C          2.79475        0.93928        0.29304
C          3.95577        0.92908        0.97880
C          5.22159        0.52464        0.30716
C          5.45543        0.78156       -1.05825
C          6.65444        0.40549       -1.66539
C          7.61932       -0.21773       -0.90773
C          7.44241       -0.47439        0.44527
C          6.24191       -0.09532        1.04507
F          8.78137       -0.58344       -1.48488
C          4.02799        1.27782        2.44056
C         -0.45653       -0.15899       -2.07578
H         -2.25644        0.92326       -1.63542
H         -2.44868       -0.26617       -2.89048
H         -3.83920       -3.99500       -1.84007
H         -5.57245       -2.10758       -1.36938
H         -4.82834       -2.77204        0.12152
H         -6.32561       -1.20795        0.55320
H         -7.42592        0.42041        1.96756
H         -6.33913        2.60898        2.46311
H         -4.10786        3.10586        1.46798
H         -3.00226        1.47903        0.05728
H         -1.91856       -2.02509        0.98538
H         -1.86112       -0.27581        1.01004
H          0.11591       -2.12773       -0.38921
H          0.43057       -1.14820        1.01165
H         -0.61245        1.52990        0.19989
H          0.59225        1.93783       -1.01737
H          1.48307        2.37261        1.20900
H          1.20390        0.71981        1.72328
H          2.78606        0.58988       -0.73893
H          4.70787        1.29419       -1.65952
H          6.83240        0.59676       -2.71912
H          8.22508       -0.96119        1.01863
H          6.10192       -0.30008        2.10236
H          3.16077        1.84871        2.78508
H          4.91469        1.88396        2.65079
H          4.08473        0.37069        3.05204
H         -0.10634        0.64914       -2.72848
H         -0.18119       -1.08793       -2.58679
