50
71.2722
O          6.53947        1.95764       -0.49123
C          5.89882        0.79208       -0.70439
O          6.51468       -0.25898       -0.73269
C          4.40738        0.98351       -0.88033
C          3.73226       -0.30241       -1.40051
C          3.25555       -1.18282       -0.23920
C          2.15230       -0.48229        0.62717
C          2.31451        1.06441        0.50371
C          3.78859        1.45898        0.44402
C          2.39454       -0.83272        2.05967
N          2.59867       -1.10152        3.17244
C          0.74545       -0.97821        0.24807
C          0.43213       -2.34485        0.36868
C         -0.84166       -2.83804        0.05157
C         -1.84700       -1.97661       -0.38620
O         -3.10109       -2.36395       -0.77352
C         -3.41800       -3.74189       -0.65388
C         -1.55959       -0.61511       -0.47800
C         -0.28208       -0.12447       -0.17673
O         -2.44886        0.30307       -0.97309
C         -3.51977        0.61466       -0.07677
C         -4.56154        1.43894       -0.85107
C         -4.93890        2.62308        0.03787
C         -4.33545        2.31859        1.39873
C         -3.07773        1.54034        1.05721
H          7.47950        1.70004       -0.38453
H          4.27574        1.75357       -1.65181
H          4.40897       -0.87097       -2.04870
H          2.86735       -0.03729       -2.02321
H          4.13433       -1.40940        0.38159
H          2.92377       -2.14966       -0.63412
H          1.81320        1.57753        1.33414
H          1.85579        1.44353       -0.41865
H          3.88866        2.54637        0.53393
H          4.32408        1.03209        1.30203
H          1.18041       -3.05515        0.72647
H         -1.00145       -3.90666        0.15505
H         -3.34265       -4.07452        0.38626
H         -4.45668       -3.86696       -0.97092
H         -2.78985       -4.35031       -1.31216
H         -0.14181        0.94604       -0.28498
H         -4.00461       -0.28481        0.32363
H         -4.17452        1.79212       -1.81398
H         -5.44231        0.82447       -1.06933
H         -6.02141        2.77417        0.09130
H         -4.49861        3.54125       -0.36971
H         -5.02238        1.69942        1.98706
H         -4.12075        3.22718        1.96903
H         -2.69645        0.98106        1.91741
H         -2.28100        2.21542        0.72269
