61
43.6806
N          9.32946        0.29798       -0.52773
C          8.57542       -0.18142       -1.53542
C          7.19519       -0.30248       -1.48083
C          6.50362        0.11210       -0.34018
C          7.29213        0.58943        0.72247
C          8.66256        0.66325        0.58400
N          5.11860        0.00560       -0.25256
C          4.48166        0.25372        1.03951
C          2.97214        0.02866        0.95722
C          2.67232       -1.12421       -0.00193
C          3.14327       -0.81424       -1.43612
C          4.27779        0.22066       -1.43113
C          1.25526       -1.63887        0.10710
O          1.06120       -2.70946        0.73547
N          0.21256       -0.95021       -0.46083
C         -1.12952       -1.50283       -0.30121
C         -1.87049       -0.79749        0.83887
N         -1.89789        0.66282        0.56063
C         -0.54741        1.24845        0.35041
C          0.18007        0.48724       -0.76569
S         -2.89309        1.60772        1.53593
O         -2.57272        1.31569        2.91540
O         -2.82450        2.95561        1.01483
C         -4.49593        0.94417        1.17032
C         -4.99794        0.97645       -0.13396
C         -6.26607        0.44003       -0.40936
C         -7.02897       -0.14109        0.63772
C         -6.49502       -0.17530        1.93597
C         -5.23042        0.35951        2.19881
C         -8.29850       -0.67063        0.35808
C         -8.80665       -0.62651       -0.94310
C         -8.06302       -0.06026       -1.97286
C         -6.79845        0.47089       -1.70859
Cl       -10.36327       -1.27886       -1.27525
H          9.12502       -0.48763       -2.42179
H          6.68107       -0.75313       -2.31960
H          6.85394        0.90252        1.66289
H          9.27794        1.04049        1.39459
H          4.68422        1.27765        1.37257
H          4.90788       -0.43918        1.77374
H          2.49009        0.95634        0.62996
H          2.57521       -0.18490        1.95194
H          3.29078       -1.96854        0.34400
H          2.33414       -0.46425       -2.08839
H          3.49326       -1.74653       -1.89968
H          3.85256        1.23316       -1.39054
H          4.83330        0.16482       -2.36704
H         -1.06902       -2.58072       -0.11960
H         -1.66550       -1.34335       -1.24306
H         -2.89962       -1.15811        0.86729
H         -1.38330       -0.99949        1.79800
H          0.02708        1.21339        1.28200
H         -0.67644        2.28883        0.04004
H         -0.37907        0.59271       -1.70252
H          1.17336        0.89229       -0.93189
H         -4.40132        1.42339       -0.92685
H         -7.06108       -0.61505        2.75541
H         -4.82562        0.32449        3.21140
H         -8.89794       -1.11900        1.15005
H         -8.46761       -0.02994       -2.98575
H         -6.22675        0.91362       -2.52315
