34
125.664
C         -0.62266       -0.30796        0.45572
N          0.18005        0.14630        1.59530
C          1.16377        1.17517        1.25546
C          2.20108        0.68838        0.28063
C          2.66467       -0.63051        0.29973
C          3.60613       -1.07942       -0.61592
C          4.12438       -0.19663       -1.56488
C          3.67524        1.12184       -1.60015
C          2.72528        1.56574       -0.68693
C         -1.70534       -1.27779        0.97386
O         -2.40767       -0.75238        2.11967
C         -2.67988       -1.35211       -0.19975
O         -3.95668       -1.84617        0.20880
C         -2.78442        0.12440       -0.63079
O         -3.74383        0.76265        0.23369
C         -1.41618        0.76880       -0.32517
S         -0.57362        1.40157       -1.82134
H          0.00800       -0.87538       -0.23093
H         -0.40996        0.41861        2.37176
H          0.67333        2.08179        0.88151
H          1.67417        1.47315        2.18286
H          2.24078       -1.33370        1.02332
H          3.94480       -2.11026       -0.58462
H          4.87393       -0.53899       -2.27416
H          4.07170        1.81257       -2.34568
H          2.35632        2.58410       -0.74457
H         -1.29832       -2.25011        1.26082
H         -2.91721        0.02535        1.81546
H         -2.29426       -1.97127       -1.01645
H         -3.91596       -1.92253        1.18628
H         -3.12359        0.24476       -1.66291
H         -4.53633        0.17186        0.21464
H         -1.57979        1.65392        0.29752
H         -0.21792        0.22424       -2.35278
