46
109.304
O          2.96481        1.39513        1.86426
C          2.51194        0.46045        1.20409
N          1.25458       -0.10590        1.43986
C          0.40284       -0.88529        0.50582
C         -0.60626        0.06022       -0.18614
N         -1.39263        0.81456        0.81317
C         -0.60058        1.52576        1.84271
C          0.44290        0.56901        2.46971
C          0.02470        2.80674        1.28514
C         -2.72633        1.18450        0.64851
O         -3.21859        2.17098        1.19180
C         -3.62186        0.32653       -0.16576
C         -3.58130       -1.07154       -0.07126
C         -4.44491       -1.84811       -0.84421
C         -5.37437       -1.22865       -1.68160
C         -5.45065        0.16437       -1.73745
C         -4.58137        0.94240       -0.97549
C          1.06708       -1.80320       -0.50838
C          3.39743       -0.06471        0.15479
C          4.16176       -1.21082        0.39760
C          5.03077       -1.67967       -0.59100
C          5.15259       -0.99260       -1.79803
C          4.41063        0.16593       -2.02588
C          3.53686        0.64323       -1.04254
H         -0.17499       -1.55418        1.16039
H         -1.25155       -0.49555       -0.86797
H         -0.08003        0.79765       -0.80408
H         -1.28535        1.82663        2.64659
H          1.06608        1.09624        3.19989
H         -0.08451       -0.22121        3.01926
H         -0.74884        3.49155        0.92139
H          0.69672        2.60631        0.44522
H          0.59603        3.32663        2.06065
H         -2.88413       -1.56056        0.60308
H         -4.40272       -2.93163       -0.78812
H         -6.05068       -1.83154       -2.28023
H         -6.19235        0.64491       -2.37159
H         -4.65380        2.02749       -1.00288
H          1.79271       -2.46429       -0.02842
H          0.31583       -2.44448       -0.98429
H          1.54651       -1.24598       -1.31549
H          4.07721       -1.73648        1.34445
H          5.62584       -2.57576       -0.41015
H          5.83876       -1.35841       -2.56349
H          4.52036        0.70777       -2.96298
H          2.97287        1.55554       -1.21093
