40
47.9874
O          6.88877        1.02908        1.29291
C          5.79085        1.51756        1.60563
C          5.70120        2.80288        2.37969
C          4.52997        0.82469        1.21157
C          3.26717        1.32884        1.53384
C          2.10976        0.64087        1.14207
C          2.20103       -0.55291        0.42636
C          3.46772       -1.05538        0.10456
C          4.62373       -0.37127        0.49460
N          1.08663       -1.31225        0.00907
C         -0.24496       -1.01943        0.20899
O         -0.66596       -0.01565        0.75834
C         -1.18620       -2.02215       -0.30193
C         -1.03397       -3.43284       -0.40975
N         -2.10034       -4.03323       -0.93861
N         -2.94548       -3.02047       -1.16996
C         -2.47320       -1.78179       -0.79064
C         -3.29734       -0.58314       -1.01819
C         -3.85653       -0.40124       -2.30004
C         -4.74366        0.64653       -2.56725
Cl        -5.39147        0.83588       -4.15467
C         -5.10393        1.52027       -1.54551
O         -5.98054        2.55098       -1.74086
C         -4.57014        1.36262       -0.27141
C         -3.66183        0.32980       -0.01742
O         -3.22280        0.24556        1.27535
H          5.16936        3.56384        1.80272
H          6.71505        3.16543        2.58171
H          5.19335        2.64326        3.33442
H          3.15205        2.25442        2.08882
H          1.14347        1.06045        1.40668
H          3.56623       -1.98571       -0.45020
H          5.60770       -0.76442        0.24335
H          1.30725       -2.13476       -0.52934
H         -0.19669       -4.05950       -0.11860
H         -3.84696       -3.23326       -1.58981
H         -3.59968       -1.09046       -3.10084
H         -6.26186        2.53619       -2.67488
H         -4.85691        2.03787        0.53127
H         -2.28086       -0.02715        1.25795
