34
126.847
C         -1.13292       -1.07549       -0.01394
N          0.29768       -0.90432       -0.08235
C          0.84616        0.44235        0.10244
C          2.36755        0.43883        0.02248
C          3.05326       -0.52917       -0.72283
C          4.44117       -0.51764       -0.81166
C          5.17011        0.47640       -0.16254
C          4.50557        1.44897        0.57917
C          3.10604        1.43072        0.66729
C         -1.91007       -0.64981        1.24957
O         -1.66943        0.68712        1.69812
C         -3.35317       -0.72446        0.74272
O         -4.24898       -0.00288        1.58777
C         -3.25673       -0.05400       -0.64135
O         -3.24255        1.37476       -0.44530
C         -1.88023       -0.44698       -1.20429
S         -1.94880       -1.61724       -2.60697
H         -1.28803       -2.16627       -0.06661
H          0.78436       -1.55098        0.54118
H          0.46513        1.11148       -0.67368
H          0.56574        0.85400        1.07325
H          2.49580       -1.31479       -1.23569
H          4.95019       -1.28304       -1.39169
H          6.25363        0.49123       -0.23456
H          5.06726        2.22554        1.09232
H          2.60262        2.19410        1.25126
H         -1.72046       -1.31078        2.09849
H         -1.97373        1.29195        0.98388
H         -3.70061       -1.75597        0.64111
H         -3.67866        0.47488        2.22946
H         -4.10182       -0.29936       -1.29081
H         -4.04440        1.56506        0.09503
H         -1.37329        0.45153       -1.57198
H         -2.44839       -0.75573       -3.49931
