25
48.4558
O         -0.13644       -2.55809       -1.51710
C         -1.46919       -2.30500       -1.41751
O         -2.24575       -3.06809       -1.97450
C         -1.82122       -1.12153       -0.63427
N         -3.08133       -0.64957       -0.66862
O         -3.09649        0.48230        0.11713
C         -1.87070        0.68179        0.65240
C         -1.01533       -0.31400        0.22451
C          0.43222       -0.40837        0.58386
C          1.26771        0.66077       -0.13921
N          1.18771        0.48067       -1.60953
C          2.71964        0.62905        0.33888
O          3.71433        0.66731       -0.36631
O          2.83238        0.65340        1.68351
C         -1.69506        1.86882        1.50390
H         -0.12857       -3.36603       -2.07304
H          0.83161       -1.40956        0.38707
H          0.51979       -0.28155        1.66965
H          0.89502        1.66544        0.08750
H          1.98627        0.95461       -2.04167
H          1.29697       -0.50867       -1.83526
H          3.79777        0.70271        1.85327
H         -1.61819        2.76933        0.88513
H         -2.52923        1.98283        2.19683
H         -0.77390        1.79141        2.09337
