25
57.7261
O         -1.30498       -3.59716       -1.57371
C         -0.69917       -2.38660       -1.53389
O          0.30266       -2.18934       -2.20589
C         -1.29898       -1.41864       -0.61711
N         -2.36642       -1.73110        0.13775
O         -2.66273       -0.61940        0.89279
C         -1.77154        0.36710        0.61958
C         -0.85117       -0.08701       -0.30436
C          0.34202        0.65651       -0.81584
C          1.35660        1.03018        0.28172
N          2.21825        2.13064       -0.23106
C          2.25935       -0.13464        0.74703
O          3.47403       -0.00403        0.90486
O          1.64661       -1.28833        1.05919
C         -1.94992        1.62950        1.36440
H         -0.76436       -4.12070       -2.20010
H         -0.03817        1.57311       -1.29166
H          0.84807        0.09508       -1.60876
H          0.85498        1.41657        1.17643
H          2.78613        1.75902       -0.99970
H          2.92090        2.32791        0.49023
H          0.67473       -1.29249        1.02509
H         -3.00407        1.90989        1.41870
H         -1.56424        1.52566        2.38420
H         -1.40857        2.44827        0.88011
