44
83.4969
Cl        -0.25864       -5.38867       -1.26724
C         -0.87278       -3.79650       -1.12779
C         -0.55173       -3.01335       -0.04148
N         -0.97594       -1.73939        0.11729
C         -1.78375       -1.21775       -0.83218
N         -2.19340        0.09972       -0.61756
C         -3.15046        0.82267       -1.32723
O         -3.79743        0.49734       -2.30142
C         -3.28696        2.10534       -0.61615
N         -4.15285        3.09733       -0.91081
C         -4.07230        4.13435       -0.04106
C         -3.19931        4.16189        1.04703
N         -2.33845        3.15160        1.32856
C         -2.41474        2.12488        0.45539
C         -1.60836        0.85676        0.48535
O         -0.25647        1.15829        0.14877
C          0.62955        1.07303        1.16992
O          0.31893        0.89944        2.34243
N          1.93799        1.16987        0.71944
C          2.25735        0.92423       -0.68664
C          2.55388       -0.57877       -0.88828
N          3.42987       -1.17591        0.15368
C          4.04016       -0.13075        1.00391
C          3.02304        0.83977        1.64947
C          2.68933       -2.13181        0.97689
C         -2.17126       -1.95250       -1.94775
C         -1.69971       -3.25724       -2.10115
H          0.08038       -3.38311        0.75872
H         -4.74289        4.96701       -0.23490
H         -3.16714        5.00521        1.73040
H         -1.73802        0.31945        1.43169
H          3.13396        1.52854       -0.94970
H          1.44238        1.23956       -1.34431
H          1.60197       -1.11924       -0.95379
H          3.03917       -0.71640       -1.86130
H          4.72956        0.44554        0.37207
H          4.66995       -0.58720        1.77531
H          3.52241        1.77252        1.93389
H          2.61729        0.39006        2.56224
H          2.39217       -2.98604        0.36149
H          3.32682       -2.52725        1.77399
H          1.79199       -1.70867        1.44467
H         -2.81531       -1.53743       -2.71545
H         -1.98027       -3.83641       -2.97637
