44
91.5406
Cl        -3.41123       -5.91297       -1.49819
C         -3.13642       -4.23887       -1.26449
C         -3.78886       -3.29301       -2.03281
N         -3.60931       -1.95944       -1.89644
C         -2.74652       -1.52488       -0.95959
N         -2.60186       -0.14164       -0.77541
C         -3.18425        0.85696       -1.56770
O         -3.74987        0.78885       -2.63586
C         -2.98262        2.12063       -0.82293
N         -3.44092        3.34256       -1.14895
C         -3.13313        4.29014       -0.22554
C         -2.41377        4.02152        0.94473
N         -1.95541        2.78515        1.25119
C         -2.27533        1.85116        0.32836
C         -1.89897        0.40338        0.36287
O         -0.50754        0.32577        0.10933
C          0.25557        0.21744        1.21980
O         -0.17620       -0.09549        2.32053
N          1.56607        0.49441        0.94469
C          2.58139        0.38422        1.98337
C          3.75502       -0.51066        1.53177
N          4.00942       -0.46984        0.07633
C          3.55388        0.79585       -0.51321
C          2.02779        0.86397       -0.39661
C          5.39809       -0.74495       -0.24004
C         -2.05154       -2.42462       -0.14459
C         -2.24893       -3.79623       -0.29993
H         -4.49880       -3.57679       -2.80373
H         -3.48319        5.29394       -0.43937
H         -2.19138        4.79756        1.66814
H         -2.24331       -0.07135        1.28864
H          2.94695        1.40023        2.18021
H          2.15376        0.00374        2.91553
H          3.53400       -1.54984        1.80609
H          4.64224       -0.21274        2.10500
H          4.01016        1.65126        0.00278
H          3.82888        0.86475       -1.57097
H          1.57293        0.17893       -1.12445
H          1.66348        1.87287       -0.62257
H          5.53089       -0.78104       -1.32600
H          6.06485        0.01970        0.16984
H          5.68850       -1.72354        0.15340
H         -1.34788       -2.10271        0.61475
H         -1.70665       -4.49440        0.33202
