39
3.14063
N         -2.82916        1.46737       -1.24405
C         -1.53823        1.23297       -1.53762
N         -0.66843        0.50672       -0.79917
C         -1.06719       -0.09925        0.33893
C         -2.40563        0.07702        0.72280
C         -3.18311        0.85594       -0.10543
O         -4.43602        0.89693        0.43570
C         -4.33459        0.13669        1.57025
N         -3.14312       -0.38297        1.79402
C         -5.56794        0.01111        2.37201
N         -0.17255       -0.83285        1.08820
C          1.06403       -1.38806        0.54965
C          0.94346       -2.13982       -0.78543
C          1.09759       -1.37887       -2.08580
O          0.24738       -1.39918       -2.96885
O          2.30757       -0.82216       -2.31851
C          2.25872       -0.45611        0.66308
C          3.54219       -1.01558        0.79469
C          4.67761       -0.20438        0.80176
C          4.54812        1.17753        0.69304
C          3.28845        1.75011        0.57087
C          2.15483        0.93885        0.55135
C         -0.99183        1.82527       -2.80005
H         -5.90852        0.99484        2.70577
H         -5.39239       -0.60994        3.25634
H         -6.36387       -0.45172        1.78103
H         -0.59446       -1.31286        1.87674
H          1.28804       -2.18434        1.27656
H         -0.02819       -2.65040       -0.82773
H          1.69356       -2.94153       -0.82471
H          2.93548       -0.83739       -1.56842
H          3.66596       -2.09480        0.86986
H          5.66359       -0.65137        0.88988
H          5.43032        1.81289        0.70779
H          3.17728        2.82877        0.48338
H          1.19133        1.42512        0.43288
H         -0.19920        2.54409       -2.56762
H         -1.77811        2.33422       -3.36180
H         -0.57295        1.03711       -3.43136
