45
75.2952
S         -0.33140        0.36553        0.55045
C         -0.91700        0.66052       -1.03644
C         -0.24365       -0.11467       -1.96311
C          0.74785       -0.94380       -1.36753
C          0.81247       -0.78836        0.00256
C          1.73885       -1.46567        0.98104
O          1.46494       -2.86465        0.92716
C          3.19748       -1.21498        0.66047
C          3.74575        0.05817        0.88135
C          5.07785        0.32765        0.56177
C          5.88551       -0.67059        0.01693
O          7.19745       -0.53031       -0.34003
C          7.77482        0.75124       -0.13163
C          5.35326       -1.94123       -0.20072
C          4.02300       -2.21245        0.11671
C         -2.04794        1.62236       -1.30369
O         -1.71490        2.89266       -0.74779
C         -3.37471        1.14494       -0.76049
C         -3.93535        1.70797        0.39559
C         -5.14530        1.23943        0.90380
C         -5.81386        0.19717        0.26440
O         -6.99800       -0.35530        0.66813
C         -7.58348        0.19501        1.84117
C         -5.26673       -0.36563       -0.89171
C         -4.05845        0.10430       -1.40449
H         -0.45920       -0.09876       -3.02488
H          1.39436       -1.62089       -1.91365
H          1.55186       -1.13436        2.01060
H          0.54374       -2.97590        1.20642
H          3.13023        0.85149        1.30042
H          5.45080        1.32810        0.75013
H          7.77267        1.01783        0.93081
H          8.81521        0.70158       -0.46297
H          7.26765        1.51588       -0.73004
H          5.97693       -2.72574       -0.62225
H          3.63169       -3.21284       -0.06243
H         -2.15746        1.77359       -2.38572
H         -0.82831        3.12054       -1.08020
H         -3.42629        2.52101        0.91105
H         -5.53112        1.71070        1.80149
H         -7.83259        1.25252        1.70045
H         -6.93504        0.05522        2.71331
H         -8.51515       -0.34550        2.02702
H         -5.78899       -1.17708       -1.39211
H         -3.64945       -0.35667       -2.30139
