34
123.322
C         -1.28965       -0.97025       -0.42477
N          0.05505       -0.61493        0.08347
C          1.00222       -0.32737       -0.99872
C          2.33354        0.14800       -0.45642
C          2.88607       -0.40576        0.70920
C          4.12459        0.02340        1.18875
C          4.83611        1.00243        0.49998
C          4.30942        1.55108       -0.66741
C          3.06776        1.12437       -1.14615
C         -2.11268       -1.60717        0.73497
O         -1.27582       -2.10406        1.78332
C         -2.99255       -0.47085        1.24588
O         -2.18717        0.42455        2.02787
C         -3.43982        0.17858       -0.06269
O         -4.04058        1.44878        0.17451
C         -2.13024        0.26367       -0.86858
S         -2.42668        0.26411       -2.67163
H         -1.18753       -1.72934       -1.21046
H         -0.02745        0.22584        0.66772
H          1.17683       -1.23208       -1.59242
H          0.59652        0.44277       -1.66546
H          2.34547       -1.17418        1.25762
H          4.53051       -0.41028        2.09869
H          5.80253        1.33443        0.87063
H          4.86821        2.31007       -1.20889
H          2.67885        1.56228       -2.06283
H         -2.72195       -2.43606        0.35627
H         -0.36197       -1.92692        1.46718
H         -3.82796       -0.80652        1.86659
H         -1.70787       -0.15518        2.65132
H         -4.18117       -0.46684       -0.55475
H         -4.44105        1.75070       -0.66023
H         -1.61234        1.20229       -0.63777
H         -2.64919        1.58046       -2.79478
