61
35.2988
N          8.39494        1.54560       -1.96920
C          8.02196        1.28883       -0.69977
C          6.75937        0.85039       -0.33812
C          5.78784        0.63972       -1.32317
C          6.17249        0.88980       -2.64374
C          7.45495        1.34138       -2.91293
N          4.51447        0.19091       -1.00656
C          4.23914       -0.39967        0.29818
C          2.99908       -1.28363        0.19488
C          1.76530       -0.42838       -0.12710
C          2.12522        0.70426       -1.10774
C          3.38642        0.40529       -1.90964
C          1.21848        0.14468        1.17241
O          1.48533        1.31399        1.52582
N          0.48123       -0.67347        1.99319
C         -0.18824       -0.08851        3.15264
C         -1.69618        0.01095        2.90743
N         -2.22945       -1.31250        2.49918
C         -1.52556       -1.94648        1.36575
C         -0.02521       -2.01109        1.66169
S         -3.88710       -1.52526        2.59284
O         -4.31752       -0.99985        3.86316
O         -4.16677       -2.89868        2.21068
C         -4.53106       -0.46597        1.30871
C         -4.92322       -1.02182        0.08633
C         -5.43529       -0.20222       -0.92928
C         -5.57087        1.19069       -0.71005
C         -5.18833        1.72787        0.53209
C         -4.68060        0.89979        1.54077
C         -6.08579        2.00425       -1.73244
C         -6.46052        1.43985       -2.95527
C         -6.32780        0.07281       -3.17359
C         -5.81726       -0.74760       -2.16562
Cl        -7.08967        2.44415       -4.20195
H          8.78701        1.45625        0.05264
H          6.54695        0.69067        0.71221
H          5.49610        0.72057       -3.47272
H          7.76900        1.54699       -3.93229
H          5.08705       -1.01946        0.60490
H          4.09431        0.38655        1.04758
H          2.86365       -1.84405        1.12317
H          3.14694       -2.01895       -0.60835
H          0.98774       -1.05275       -0.58793
H          1.28639        0.89792       -1.78546
H          2.28695        1.63721       -0.55348
H          3.24041       -0.48467       -2.53315
H          3.58125        1.25478       -2.57019
H          0.22894        0.90013        3.36805
H          0.00387       -0.73985        4.01058
H         -1.90202        0.74787        2.12496
H         -2.18804        0.31711        3.83465
H         -1.70658       -1.38035        0.44683
H         -1.90132       -2.96597        1.24908
H          0.15105       -2.63597        2.54429
H          0.52749       -2.44874        0.83279
H         -4.82639       -2.09386       -0.07087
H         -5.28729        2.79452        0.72282
H         -4.39233        1.33203        2.49934
H         -6.19890        3.07750       -1.58264
H         -6.62352       -0.35881       -4.13098
H         -5.71850       -1.81679       -2.34540
