40
46.8631
O          5.94393        1.47590        1.74405
C          4.79718        1.93426        1.85758
C          4.56057        3.31919        2.39256
C          3.61751        1.11155        1.46109
C          2.30521        1.58122        1.57013
C          1.23569        0.76378        1.18809
C          1.46284       -0.52447        0.69030
C          2.76865       -0.98784        0.57336
C          3.84142       -0.17639        0.96223
N          0.33244       -1.27119        0.31047
C          0.30713       -2.47086       -0.36805
O          1.28886       -3.18320       -0.57882
C         -1.01285       -2.91588       -0.81670
C         -1.34313       -4.27403       -1.06852
N         -2.62916       -4.45435       -1.37368
N         -3.12492       -3.20923       -1.35478
C         -2.19176       -2.22160       -1.09249
C         -2.55037       -0.79666       -1.17413
C         -1.59585        0.15350       -1.57451
C         -1.90255        1.51486       -1.62154
Cl        -0.68752        2.65297       -2.06732
C         -3.18555        1.93908       -1.29781
O         -3.55018        3.25807       -1.31001
C         -4.16660        1.01835       -0.94449
C         -3.84819       -0.33986       -0.89383
O         -4.81485       -1.25484       -0.56806
H          3.95855        3.28132        3.30442
H          5.52601        3.77765        2.63166
H          4.05717        3.93884        1.64558
H          2.08805        2.57407        1.95048
H          0.22135        1.14870        1.27532
H          2.96805       -1.98475        0.19298
H          4.86370       -0.54182        0.87824
H         -0.55639       -0.83793        0.51428
H         -0.68649       -5.13367       -0.99949
H         -4.12271       -3.08226       -1.51723
H         -0.59479       -0.16101       -1.85637
H         -2.77297        3.78500       -1.57770
H         -5.16274        1.38087       -0.71422
H         -5.64474       -0.78736       -0.37308
