50
70.9247
O          6.18046        0.27864        0.40441
C          5.94993        0.45479       -0.90984
O          6.83430        0.82693       -1.66154
C          4.50658        0.22166       -1.29900
C          3.91926       -1.06288       -0.68118
C          3.14408       -0.75826        0.61102
C          1.90276        0.13508        0.35241
C          2.18400        1.07668       -0.85485
C          3.66835        1.45199       -0.93514
C          1.71803        0.96580        1.56562
N          1.54635        1.64605        2.50618
C          0.61148       -0.64931        0.07123
C          0.58701       -2.03019       -0.18014
C         -0.60973       -2.70037       -0.44675
C         -1.81230       -1.99804       -0.47434
O         -3.03544       -2.55048       -0.73486
C         -3.08430       -3.94004       -0.99730
C         -1.81523       -0.62045       -0.22146
C         -0.61471        0.03719        0.04437
O         -3.04049       -0.01113       -0.23512
C         -3.11338        1.39223        0.02020
C         -2.89354        1.70616        1.50955
C         -4.26097        2.08458        2.08234
C         -5.27252        1.58238        1.05963
C         -4.55669        1.79914       -0.27020
H          7.12960        0.48298        0.54011
H          4.51500        0.09602       -2.39039
H          4.70005       -1.80597       -0.48477
H          3.23441       -1.51784       -1.40933
H          3.82409       -0.23580        1.29682
H          2.86912       -1.67624        1.13778
H          1.57579        1.98688       -0.79048
H          1.90721        0.58053       -1.79755
H          3.99302        1.86686        0.02822
H          3.83606        2.24005       -1.67744
H          1.49743       -2.62047       -0.18224
H         -0.57292       -3.76895       -0.63334
H         -2.50503       -4.19734       -1.88979
H         -2.74090       -4.51959       -0.13463
H         -4.13249       -4.18400       -1.18326
H         -0.61836        1.10180        0.25248
H         -2.42983        1.93017       -0.64717
H         -2.47617        0.84441        2.04280
H         -2.18146        2.53178        1.63315
H         -4.42369        1.66185        3.08006
H         -4.33744        3.17442        2.18137
H         -5.47860        0.51696        1.21824
H         -6.22907        2.11348        1.11588
H         -4.99369        1.20355       -1.07982
H         -4.60544        2.85632       -0.55193
