40
59.3378
O          5.06620        3.03445        2.62771
C          5.29532        2.18156        1.75198
C          6.67258        1.98427        1.19458
C          4.17757        1.33212        1.23278
C          4.38011        0.36246        0.24670
C          3.30273       -0.40681       -0.20806
C          2.01785       -0.22055        0.31729
C          1.82395        0.74742        1.30145
C          2.89830        1.52164        1.75526
N          0.99135       -1.03881       -0.19158
C         -0.33227       -1.08497        0.22001
O         -0.82328       -0.36997        1.08209
C         -1.13523       -2.09433       -0.49236
C         -0.74832       -3.38669       -0.92475
N         -1.74475       -4.08543       -1.46931
N         -2.78403       -3.23741       -1.41461
C         -2.48482       -2.02055       -0.85440
C         -3.46889       -0.93768       -0.77068
C         -4.80795       -1.19185       -0.43794
C         -5.72172       -0.14088       -0.32331
Cl        -7.35898       -0.48554        0.10058
C         -5.30422        1.17047       -0.54541
O         -6.22459        2.17319       -0.43099
C         -3.98187        1.44516       -0.90132
C         -3.08186        0.38577       -1.02285
O         -1.80492        0.60974       -1.46803
H          7.02158        0.96606        1.38537
H          7.35834        2.68273        1.68551
H          6.68501        2.18581        0.12012
H          5.36036        0.18356       -0.18470
H          3.48266       -1.15971       -0.97162
H          0.83929        0.91805        1.72435
H          2.74056        2.27766        2.52350
H          1.24602       -1.63728       -0.96111
H          0.21626       -3.87271       -0.83472
H         -3.67604       -3.54549       -1.79227
H         -5.14654       -2.20453       -0.24442
H         -5.80129        3.03670       -0.57147
H         -3.65802        2.45675       -1.11228
H         -1.48646        1.46562       -1.14108
