45
77.3454
S         -0.56113       -2.69029       -0.43293
C         -1.48286       -1.81840       -1.58752
C         -0.66303       -1.21382       -2.52166
C          0.71930       -1.41984       -2.25034
C          0.92806       -2.17591       -1.11103
C          2.22988       -2.54543       -0.43650
O          3.01939       -3.20763       -1.42667
C          2.96130       -1.35213        0.16774
C          4.33732       -1.14789       -0.02093
C          4.99868       -0.06277        0.57255
C          4.29905        0.83146        1.38124
O          4.82011        1.92223        2.01959
C          6.20783        2.17030        1.83862
C          2.93705        0.62763        1.59457
C          2.27605       -0.45303        1.00352
C         -2.98661       -1.78524       -1.48024
O         -3.50699       -1.67328       -2.80813
C         -3.47948       -0.63418       -0.62063
C         -3.56441       -0.78785        0.77263
C         -3.97223        0.27595        1.58247
C         -4.30488        1.51021        1.02364
O         -4.68235        2.46631        1.92606
C         -5.02791        3.74080        1.39845
C         -4.22781        1.67218       -0.35905
C         -3.81498        0.60995       -1.17154
H         -1.04269       -0.62349       -3.34803
H          1.51963       -0.99958       -2.84730
H          2.06703       -3.27436        0.36616
H          3.16259       -2.56559       -2.14006
H          4.92056       -1.84099       -0.62449
H          6.06183        0.04759        0.38759
H          6.43791        2.36932        0.78716
H          6.81108        1.34311        2.22711
H          6.46506        3.06751        2.41081
H          2.38152        1.31292        2.23032
H          1.21456       -0.57945        1.20539
H         -3.37603       -2.72878       -1.07853
H         -3.14517       -2.42685       -3.30293
H         -3.30436       -1.73425        1.24137
H         -4.02541        0.14155        2.66040
H         -5.30174        4.38783        2.23727
H         -5.89636        3.67024        0.73512
H         -4.17576        4.20145        0.88754
H         -4.47749        2.61121       -0.84081
H         -3.75611        0.76126       -2.24802
