34
126.313
C         -1.20228       -0.97659       -0.31924
N          0.24905       -0.83551       -0.45341
C          0.82165        0.45340       -0.06350
C          2.33485        0.43448       -0.12512
C          3.06366       -0.72016        0.20116
C          4.45630       -0.71562        0.18140
C          5.14562        0.45215       -0.14354
C          4.43666        1.61463       -0.44564
C          3.03949        1.60861       -0.43359
C         -1.79402       -1.01975        1.11132
O         -1.47254        0.10065        1.94410
C         -3.29805       -0.98198        0.80803
O         -4.06972       -0.64402        1.96112
C         -3.40289        0.12037       -0.25705
O         -3.41428        1.39692        0.41711
C         -2.10354        0.02965       -1.08542
S         -2.40596       -0.51008       -2.80465
H         -1.40772       -1.98071       -0.72173
H          0.53534       -1.03302       -1.41252
H          0.55519        0.73372        0.95768
H          0.45972        1.23444       -0.74072
H          2.54252       -1.63447        0.47725
H          5.00348       -1.62092        0.42649
H          6.23152        0.45765       -0.14972
H          4.97349        2.52827       -0.68249
H          2.50738        2.52673       -0.65723
H         -1.50871       -1.92605        1.65433
H         -1.83605        0.90795        1.52372
H         -3.64066       -1.94221        0.40606
H         -3.42219       -0.41550        2.66157
H         -4.32879        0.05687       -0.83624
H         -4.15042        1.32949        1.06110
H         -1.64499        1.02075       -1.14641
H         -1.25311       -0.05014       -3.31424
