36
48.5978
C          5.38305       -0.18335        0.84769
C          4.85264       -0.37184       -0.53927
C          4.26387        0.67506        0.35113
N          2.95633        0.43072        0.90665
C          1.86962        0.67485       -0.05422
C          0.55871        0.16131        0.59598
C         -0.58834        0.17411       -0.42762
N         -0.23522       -0.77238       -1.49163
C         -1.93748       -0.16070        0.25939
C         -3.15497        0.09792       -0.63961
C         -4.47595       -0.22878        0.07017
C         -5.68870       -0.00856       -0.83171
O          0.75591       -1.14815        1.11321
O          0.28450        1.02430        1.70117
H          5.14415       -0.93831        1.58692
H          6.35703        0.27484        0.97151
H          4.24659       -1.24928       -0.73816
H          5.44943       -0.03706       -1.38011
H          4.48947        1.71513        0.12286
H          2.78380        0.97625        1.74963
H          2.07358        0.12097       -0.96922
H          1.78718        1.74502       -0.28683
H         -0.66521        1.18148       -0.84409
H         -0.98090       -0.85414       -2.17709
H         -0.07961       -1.68514       -1.07829
H         -1.94018       -1.20011        0.59898
H         -2.03787        0.46029        1.16146
H         -3.07513       -0.50819       -1.54572
H         -3.16178        1.14884       -0.95345
H         -4.46117       -1.27220        0.40251
H         -4.57841        0.39065        0.96828
H         -5.63912       -0.63781       -1.72655
H         -6.61842       -0.25705       -0.30405
H         -5.76173        1.03475       -1.15617
H          1.72093       -1.17314        1.29965
H          0.10339        0.39970        2.43661
