57
54.6998
C         -1.64503       -0.71704       -0.97953
C         -2.53299       -1.10241        0.22374
C         -2.62476       -2.65388        0.24513
O         -1.72778       -3.47570        0.24288
N         -3.94708       -3.02195        0.28396
C         -4.82427       -1.94328        0.01975
N         -3.97240       -0.76721       -0.00035
C         -4.53165        0.48024       -0.16816
C         -5.90165        0.63834       -0.45059
C         -6.48623        1.89477       -0.62605
C         -5.70905        3.03665       -0.52268
C         -4.35379        2.92155       -0.24385
C         -3.78095        1.65674       -0.07113
C         -2.07006       -0.67288        1.63495
C         -0.76565        0.11748        1.70123
N          0.19710       -0.18383        0.65445
C          0.84177       -1.49413        0.80484
C          2.07275       -1.68562       -0.09775
C          3.10379       -0.61247        0.13804
C          4.27322       -0.48583       -0.51357
C          5.19947        0.63009       -0.17967
C          5.29175        1.14945        1.12668
C          6.17362        2.19015        1.42843
C          6.98190        2.71081        0.42732
C          6.92573        2.20763       -0.86413
C          6.03861        1.17346       -1.16550
F          7.83113        3.70514        0.71396
C          4.68541       -1.42495       -1.61648
C         -0.38726        0.08570       -0.65147
H         -2.21541       -0.14568       -1.72319
H         -1.32428       -1.62043       -1.51477
H         -4.19185       -3.99051        0.19255
H         -5.58211       -1.90573        0.80991
H         -5.29618       -2.13034       -0.95075
H         -6.55993       -0.21950       -0.54869
H         -7.54681        1.96574       -0.84427
H         -6.15786        4.01613       -0.65726
H         -3.73174        3.80683       -0.15766
H         -2.72259        1.62551        0.15008
H         -1.94542       -1.55865        2.27196
H         -2.84221       -0.07462        2.13570
H         -0.98473        1.19237        1.65685
H         -0.30205       -0.01868        2.68698
H          0.15227       -2.31308        0.62170
H          1.17900       -1.60733        1.84413
H          2.50861       -2.66660        0.12850
H          1.77092       -1.70018       -1.15123
H          2.81609        0.13163        0.87957
H          4.68542        0.74356        1.93286
H          6.23605        2.59084        2.43456
H          7.56862        2.62390       -1.63340
H          6.00870        0.80399       -2.18681
H          4.13031       -2.36737       -1.59816
H          5.74506       -1.68634       -1.53000
H          4.51190       -0.96217       -2.59406
H          0.35104       -0.04890       -1.45114
H         -0.61646        1.15861       -0.69840
