61
38.1157
N          8.56075        1.86989        0.95425
C          7.52926        1.59201        1.77870
C          6.29187        1.15192        1.34500
C          6.05031        0.98747       -0.02376
C          7.10888        1.29109       -0.88378
C          8.32313        1.70665       -0.36312
N          4.81755        0.56437       -0.50323
C          4.69189       -0.06691       -1.81687
C          3.67798       -1.20211       -1.75273
C          2.28225       -0.72318       -1.30170
C          2.38775        0.58873       -0.51049
C          3.64186        0.58149        0.35847
C          1.61186       -1.78489       -0.44412
O          2.28719       -2.54514        0.27650
N          0.23813       -1.87157       -0.45386
C         -0.69235       -0.81139       -0.88336
C         -1.34511       -0.13969        0.33415
N         -1.97395       -1.16923        1.19522
C         -1.02369       -2.23496        1.62838
C         -0.40359       -2.88224        0.38578
S         -2.98240       -0.61869        2.43046
O         -2.24995        0.40090        3.16653
O         -3.52137       -1.77940        3.08684
C         -4.27413        0.16578        1.51480
C         -5.03969       -0.57274        0.60351
C         -6.05835        0.05856       -0.12358
C         -6.30251        1.44934        0.05816
C         -5.50580        2.16774        0.96317
C         -4.49018        1.52661        1.68318
C         -7.32624        2.07375       -0.66595
C         -8.10512        1.33325       -1.56461
C         -7.87090       -0.02148       -1.74808
C         -6.85261       -0.65914       -1.03235
Cl        -9.35790        2.11207       -2.44798
H          7.73183        1.72651        2.83654
H          5.53101        0.93710        2.08624
H          7.00297        1.22277       -1.96031
H          9.15932        1.93915       -1.01572
H          5.64876       -0.48396       -2.14452
H          4.37798        0.68399       -2.55167
H          4.06042       -1.96024       -1.05670
H          3.60746       -1.69947       -2.72677
H          1.66896       -0.56631       -2.19986
H          2.44405        1.42830       -1.21622
H          1.50690        0.75179        0.11067
H          3.64688        1.48969        0.97021
H          3.64643       -0.28706        1.02703
H         -0.19386       -0.07339       -1.50644
H         -1.46366       -1.30392       -1.48631
H         -2.12439        0.53512       -0.02745
H         -0.60774        0.43304        0.90648
H         -0.24087       -1.81870        2.27184
H         -1.58347       -2.99758        2.17858
H          0.32353       -3.65319        0.67151
H         -1.18246       -3.36169       -0.21558
H         -4.84147       -1.63436        0.47280
H         -5.67198        3.23115        1.12195
H         -3.87909        2.10230        2.38227
H         -7.52731        3.13697       -0.53702
H         -8.48212       -0.59329       -2.45013
H         -6.68287       -1.72358       -1.18493
