45
74.4915
S         -0.33972       -2.77794       -0.46305
C         -1.43331       -1.73372       -1.27323
C         -0.76055       -0.85707       -2.10362
C          0.64991       -1.03804       -2.06016
C          1.02847       -2.04999       -1.19872
C          2.41952       -2.53022       -0.86861
O          2.96068       -3.06786       -2.07630
C          3.30489       -1.42909       -0.31603
C          3.08190       -0.94722        0.98413
C          3.86050        0.08714        1.51368
C          4.87875        0.66007        0.75192
O          5.70202        1.67797        1.14839
C          5.48965        2.19783        2.45453
C          5.11239        0.18501       -0.53914
C          4.33484       -0.84768       -1.07038
C         -2.91835       -1.84569       -1.03237
O         -3.50300       -2.24488       -2.27220
C         -3.53044       -0.54957       -0.53204
C         -3.27329       -0.12200        0.78047
C         -3.79837        1.08214        1.26238
C         -4.59267        1.88030        0.44070
O         -5.15680        3.07761        0.78679
C         -4.90002        3.54583        2.10405
C         -4.85899        1.46165       -0.86279
C         -4.33418        0.26049       -1.34719
H         -1.26434       -0.10947       -2.70623
H          1.36123       -0.44630       -2.62563
H          2.40494       -3.35147       -0.14116
H          2.34913       -3.76661       -2.36028
H          2.28705       -1.37108        1.59534
H          3.64159        0.42382        2.52061
H          4.48710        2.62940        2.54974
H          5.66331        1.43034        3.21628
H          6.21397        3.00024        2.61880
H          5.90447        0.62387       -1.14092
H          4.53795       -1.19295       -2.08216
H         -3.15423       -2.63517       -0.30808
H         -3.06255       -3.07432       -2.52503
H         -2.64873       -0.72333        1.43829
H         -3.56216        1.36677        2.28217
H         -5.30589        2.85760        2.85300
H         -3.82983        3.71695        2.26181
H         -5.41129        4.50631        2.22362
H         -5.47854        2.07677       -1.51077
H         -4.55703       -0.03644       -2.37060
