36
62.6499
C          4.35766       -0.68195        0.23963
C          4.57877        0.63892       -0.43263
C          3.27041        0.35375        0.23428
N          2.11469        0.14996       -0.64111
C          1.17242       -0.84524       -0.13014
C          0.04621       -0.34011        0.81733
C         -0.79171        0.83859        0.21736
N          0.03199        2.07743        0.15840
C         -1.36728        0.61886       -1.18697
C         -2.32980       -0.55425       -1.39653
C         -3.74711       -0.35543       -0.84756
C         -3.92496       -0.67491        0.62675
O          0.53811        0.13282        2.06740
O         -0.74810       -1.46622        1.16587
H          4.85944       -0.87526        1.17830
H          4.22169       -1.55641       -0.38478
H          4.58911        0.67198       -1.51695
H          5.23764        1.36178        0.04309
H          3.06452        0.87082        1.16482
H          1.61097        1.04208       -0.75919
H          0.70679       -1.32225       -0.99091
H          1.71441       -1.66268        0.36666
H         -1.60362        1.05242        0.91557
H         -0.56578        2.87321       -0.02501
H          0.43166        2.21114        1.09620
H         -1.87533        1.53847       -1.50633
H         -0.53592        0.49154       -1.89114
H         -2.43116       -0.66195       -2.48582
H         -1.90152       -1.49993       -1.05111
H         -4.09047        0.66398       -1.05125
H         -4.41503       -1.02427       -1.40702
H         -3.38046        0.01802        1.27029
H         -3.59872       -1.69372        0.85597
H         -4.98317       -0.59572        0.89893
H          1.01417       -0.62122        2.45777
H         -1.27054       -1.17424        1.92984
