36
46.6529
C          3.75515        1.97120        0.09468
C          4.63261        1.32916        1.12791
C          3.88593        0.47574        0.14001
N          2.80580       -0.37609        0.62829
C          1.52130       -0.16418       -0.07848
C          0.56158       -1.30956        0.31435
C         -0.74492       -1.33931       -0.54121
N         -1.55265       -2.54107       -0.20496
C         -1.61180       -0.07657       -0.36444
C         -2.84782       -0.07514       -1.27457
C         -3.70138        1.18716       -1.13734
C         -4.38122        1.30884        0.21801
O          1.24407       -2.56149        0.17602
O          0.25194       -1.20972        1.70056
H          4.22979        2.48383       -0.73392
H          2.83625        2.43484        0.43033
H          5.70626        1.41080        1.01043
H          4.29873        1.36103        2.15807
H          4.47896        0.02074       -0.65106
H          2.62764       -0.24434        1.62806
H          1.69511       -0.18357       -1.16062
H          1.10523        0.80536        0.20756
H         -0.46250       -1.43870       -1.59601
H         -1.78963       -2.48423        0.78626
H         -0.91704       -3.34283       -0.27103
H         -1.01654        0.81400       -0.60102
H         -1.91543        0.01611        0.68418
H         -3.47571       -0.95019       -1.07118
H         -2.51799       -0.15738       -2.31752
H         -3.09058        2.07756       -1.32468
H         -4.47703        1.16474       -1.91234
H         -4.98794        0.42332        0.43327
H         -3.65370        1.43355        1.02489
H         -5.04135        2.18188        0.22929
H          2.19100       -2.31565        0.24608
H          0.35791       -2.12981        2.00210
