57
39.6616
C         -2.09237       -1.40386        0.43573
C         -2.97152       -1.09974       -0.77876
C         -3.01853       -2.35904       -1.66835
O         -2.09964       -2.90820       -2.25487
N         -4.31721       -2.79487       -1.72784
C         -5.23573       -1.90672       -1.11908
N         -4.40514       -0.95266       -0.40876
C         -4.99102        0.09739        0.26934
C         -4.25291        1.08834        0.93239
C         -4.86613        2.14291        1.62183
C         -6.24642        2.23052        1.66149
C         -7.01279        1.27033        1.02074
C         -6.38754        0.21976        0.34128
C         -2.47396        0.07499       -1.62776
C         -0.96843        0.00326       -1.86388
N         -0.24867       -0.12411       -0.58806
C          1.20553       -0.04572       -0.82092
C          1.97735        0.26016        0.47774
C          3.42400        0.57353        0.19971
C          4.48184        0.33955        1.00428
C          5.84960        0.69027        0.53506
C          6.80618        1.18048        1.43643
C          8.09793        1.50323        1.00566
C          8.43836        1.32917       -0.33011
C          7.52093        0.83415       -1.24381
C          6.23472        0.50889       -0.80951
F          9.67274        1.64583       -0.73793
C          4.36864       -0.21638        2.40237
C         -0.61035       -1.38656        0.07267
H         -2.35064       -2.37838        0.86715
H         -2.24905       -0.68250        1.24232
H         -4.57110       -3.53967       -2.35879
H         -5.82270       -1.42634       -1.90981
H         -5.89338       -2.46954       -0.44755
H         -3.16849        1.08498        0.93025
H         -4.24475        2.88313        2.11685
H         -6.72516        3.04784        2.19077
H         -8.09588        1.31924        1.03514
H         -7.03718       -0.50185       -0.14377
H         -2.68613        1.03666       -1.15049
H         -3.00056        0.10612       -2.58957
H         -0.72140       -0.81969       -2.54360
H         -0.66588        0.93045       -2.36595
H          1.40651        0.77826       -1.51824
H          1.58292       -0.96085       -1.29860
H          1.89100       -0.58838        1.16203
H          1.52008        1.12924        0.96186
H          3.58652        1.06887       -0.76048
H          6.56030        1.33182        2.48400
H          8.83145        1.89135        1.70407
H          7.80989        0.70083       -2.28198
H          5.53536        0.09883       -1.53490
H          3.42271       -0.72874        2.58952
H          5.16334       -0.94441        2.60160
H          4.44871        0.59139        3.13909
H         -0.04542       -1.50799        1.00193
H         -0.36054       -2.24560       -0.55993
