astex_1n2j_01.log
 OpenBabel10161801213D
Gaussian 16 # PM6 Opt
 22 21  0  0  1  0  0  0  0  0999 V2000
   -1.3870    1.6539    0.3364 O   0  0  0  0  0  0  0  0  0  0  0  0
   -1.4715    0.4974   -0.0020 C   0  0  0  0  0  0  0  0  0  0  0  0
   -2.6695   -0.1377    0.1335 O   0  0  0  0  0  0  0  0  0  0  0  0
   -0.3518   -0.3530   -0.6200 C   0  0  2  0  0  0  0  0  0  0  0  0
   -0.9165   -1.6605   -0.7975 O   0  0  0  0  0  0  0  0  0  0  0  0
    0.9647   -0.3672    0.2060 C   0  0  0  0  0  0  0  0  0  0  0  0
    2.0230   -1.1203   -0.6087 C   0  0  0  0  0  0  0  0  0  0  0  0
    0.7268   -1.0555    1.5565 C   0  0  0  0  0  0  0  0  0  0  0  0
    1.4444    1.0900    0.4599 C   0  0  0  0  0  0  0  0  0  0  0  0
    1.2994    1.8719   -0.7302 O   0  0  0  0  0  0  0  0  0  0  0  0
   -2.6590   -1.0782   -0.2469 H   0  0  0  0  0  0  0  0  0  0  0  0
   -0.1557    0.0061   -1.6644 H   0  0  0  0  0  0  0  0  0  0  0  0
   -0.5903   -2.2787   -0.0939 H   0  0  0  0  0  0  0  0  0  0  0  0
    1.6572   -2.0851   -0.9772 H   0  0  0  0  0  0  0  0  0  0  0  0
    2.9281   -1.3120   -0.0222 H   0  0  0  0  0  0  0  0  0  0  0  0
    2.3294   -0.5313   -1.4871 H   0  0  0  0  0  0  0  0  0  0  0  0
   -0.0076   -0.5206    2.1726 H   0  0  0  0  0  0  0  0  0  0  0  0
    0.3686   -2.0855    1.4314 H   0  0  0  0  0  0  0  0  0  0  0  0
    1.6527   -1.1142    2.1432 H   0  0  0  0  0  0  0  0  0  0  0  0
    2.5295    1.1192    0.6709 H   0  0  0  0  0  0  0  0  0  0  0  0
    0.8928    1.5661    1.2902 H   0  0  0  0  0  0  0  0  0  0  0  0
    0.4289    2.3459   -0.7049 H   0  0  0  0  0  0  0  0  0  0  0  0
  2  3  1  0  0  0  0
  2  1  2  0  0  0  0
  4 12  1  6  0  0  0
  4  2  1  0  0  0  0
  4  6  1  0  0  0  0
  5  4  1  0  0  0  0
  5 13  1  0  0  0  0
  6  9  1  0  0  0  0
  6  8  1  0  0  0  0
  7 15  1  0  0  0  0
  7  6  1  0  0  0  0
  8 19  1  0  0  0  0
  8 17  1  0  0  0  0
  9 20  1  0  0  0  0
  9 21  1  0  0  0  0
 10 22  1  0  0  0  0
 10  9  1  0  0  0  0
 11  3  1  0  0  0  0
 14  7  1  0  0  0  0
 16  7  1  0  0  0  0
 18  8  1  0  0  0  0
M  END
