astex_1of1_10.log
 OpenBabel10161801213D
Gaussian 16 # PM6 Opt
 34 36  0  0  1  0  0  0  0  0999 V2000
    4.6307    1.7934    0.3841 O   0  0  0  0  0  0  0  0  0  0  0  0
    3.2299    1.6520    0.6382 C   0  0  0  0  0  0  0  0  0  0  0  0
    2.7926    0.1895    0.4854 C   0  0  2  0  0  0  0  0  0  0  0  0
    2.6143   -0.2122   -1.0143 C   0  0  1  0  0  0  0  0  0  0  0  0
    3.6482   -1.1057   -1.4138 O   0  0  0  0  0  0  0  0  0  0  0  0
    1.2140   -0.8430   -1.2051 C   0  0  0  0  0  0  0  0  0  0  0  0
    0.5084   -0.7300    0.1366 C   0  0  2  0  0  0  0  0  0  0  0  0
   -0.9131   -0.3929    0.0888 N   0  0  0  0  0  0  0  0  0  0  0  0
   -1.8811   -1.4478    0.1602 C   0  0  0  0  0  0  0  0  0  0  0  0
   -1.5705   -2.6134    0.2935 O   0  0  0  0  0  0  0  0  0  0  0  0
   -3.2292   -1.0302    0.0708 N   0  0  0  0  0  0  0  0  0  0  0  0
   -3.6794    0.3283   -0.0909 C   0  0  0  0  0  0  0  0  0  0  0  0
   -4.8752    0.5087   -0.1495 O   0  0  0  0  0  0  0  0  0  0  0  0
   -2.5961    1.3234   -0.1638 C   0  0  0  0  0  0  0  0  0  0  0  0
   -1.2937    0.9535   -0.0794 C   0  0  0  0  0  0  0  0  0  0  0  0
   -3.0238    2.7393   -0.3345 C   0  0  0  0  0  0  0  0  0  0  0  0
    1.4636   -0.0922    1.1684 C   0  0  1  0  0  0  0  0  0  0  0  0
    1.0441   -1.5474    1.3043 C   0  0  0  0  0  0  0  0  0  0  0  0
    4.8784    1.3665   -0.4649 H   0  0  0  0  0  0  0  0  0  0  0  0
    3.1390    2.0063    1.6845 H   0  0  0  0  0  0  0  0  0  0  0  0
    2.6746    2.3351   -0.0287 H   0  0  0  0  0  0  0  0  0  0  0  0
    3.5959   -0.4494    0.9359 H   0  0  0  0  0  0  0  0  0  0  0  0
    2.7757    0.6438   -1.7065 H   0  0  0  0  0  0  0  0  0  0  0  0
    3.6123   -1.9510   -0.9211 H   0  0  0  0  0  0  0  0  0  0  0  0
    0.6552   -0.3372   -2.0129 H   0  0  0  0  0  0  0  0  0  0  0  0
    1.2921   -1.8987   -1.5328 H   0  0  0  0  0  0  0  0  0  0  0  0
   -3.9455   -1.7711    0.1243 H   0  0  0  0  0  0  0  0  0  0  0  0
   -0.4710    1.6778   -0.1336 H   0  0  0  0  0  0  0  0  0  0  0  0
   -3.6962    3.0487    0.4833 H   0  0  0  0  0  0  0  0  0  0  0  0
   -3.5961    2.8675   -1.2685 H   0  0  0  0  0  0  0  0  0  0  0  0
   -2.1852    3.4446   -0.3591 H   0  0  0  0  0  0  0  0  0  0  0  0
    1.1298    0.6260    1.9154 H   0  0  0  0  0  0  0  0  0  0  0  0
    1.7472   -2.3561    1.1147 H   0  0  0  0  0  0  0  0  0  0  0  0
    0.3659   -1.8372    2.1092 H   0  0  0  0  0  0  0  0  0  0  0  0
  1  2  1  0  0  0  0
  2 20  1  0  0  0  0
  3  2  1  0  0  0  0
  3 22  1  1  0  0  0
  3 17  1  0  0  0  0
  4 23  1  6  0  0  0
  4  3  1  0  0  0  0
  5  4  1  0  0  0  0
  5 24  1  0  0  0  0
  6  4  1  0  0  0  0
  6  7  1  0  0  0  0
  7  8  1  1  0  0  0
  7 17  1  0  0  0  0
  7 18  1  0  0  0  0
  8  9  1  0  0  0  0
  9 10  2  0  0  0  0
 11 27  1  0  0  0  0
 11  9  1  0  0  0  0
 12 11  1  0  0  0  0
 13 12  2  0  0  0  0
 14 12  1  0  0  0  0
 14 15  2  0  0  0  0
 15  8  1  0  0  0  0
 16 14  1  0  0  0  0
 16 29  1  0  0  0  0
 17 18  1  0  0  0  0
 17 32  1  1  0  0  0
 18 34  1  0  0  0  0
 19  1  1  0  0  0  0
 21  2  1  0  0  0  0
 25  6  1  0  0  0  0
 26  6  1  0  0  0  0
 28 15  1  0  0  0  0
 30 16  1  0  0  0  0
 31 16  1  0  0  0  0
 33 18  1  0  0  0  0
M  END
