astex_1meh_19.log
 OpenBabel10161801213D
Gaussian 16 # PM6 Opt
 43 44  0  0  0  0  0  0  0  0999 V2000
   -2.1794   -2.8156   -0.4352 C   0  0  0  0  0  0  0  0  0  0  0  0
   -1.7436   -3.7536   -1.0357 O   0  0  0  0  0  0  0  0  0  0  0  0
   -1.9084   -1.3644   -0.4019 C   0  0  0  0  0  0  0  0  0  0  0  0
   -2.7740   -0.7540    0.5423 C   0  0  0  0  0  0  0  0  0  0  0  0
   -3.6371   -1.8267    1.1493 C   0  0  0  0  0  0  0  0  0  0  0  0
   -3.2180   -3.0669    0.4999 O   0  0  0  0  0  0  0  0  0  0  0  0
   -2.7513    0.6045    0.8016 C   0  0  0  0  0  0  0  0  0  0  0  0
   -3.6297    1.2303    1.8284 C   0  0  0  0  0  0  0  0  0  0  0  0
   -1.8144    1.3703    0.0495 C   0  0  0  0  0  0  0  0  0  0  0  0
   -0.9390    0.8203   -0.8909 C   0  0  0  0  0  0  0  0  0  0  0  0
   -0.9867   -0.5886   -1.1046 C   0  0  0  0  0  0  0  0  0  0  0  0
   -0.1805   -1.2365   -1.9814 O   0  0  0  0  0  0  0  0  0  0  0  0
    0.0277    1.6921   -1.6444 C   0  0  0  0  0  0  0  0  0  0  0  0
    1.4677    1.3355   -1.4140 C   0  0  0  0  0  0  0  0  0  0  0  0
    2.0858    1.3783   -0.2221 C   0  0  0  0  0  0  0  0  0  0  0  0
    3.5483    1.0200   -0.1095 C   0  0  0  0  0  0  0  0  0  0  0  0
    3.7264   -0.3321    0.5887 C   0  0  0  0  0  0  0  0  0  0  0  0
    5.1586   -0.7716    0.5500 C   0  0  0  0  0  0  0  0  0  0  0  0
    6.0498   -0.4964   -0.2168 O   0  0  0  0  0  0  0  0  0  0  0  0
    5.4014   -1.6385    1.5943 O   0  0  0  0  0  0  0  0  0  0  0  0
    1.4089    1.7593    1.0519 C   0  0  0  0  0  0  0  0  0  0  0  0
   -1.6804    2.7318    0.3271 O   0  0  0  0  0  0  0  0  0  0  0  0
   -2.6850    3.5705   -0.3024 C   0  0  0  0  0  0  0  0  0  0  0  0
   -4.7129   -1.7167    0.9282 H   0  0  0  0  0  0  0  0  0  0  0  0
   -3.4722   -1.9796    2.2300 H   0  0  0  0  0  0  0  0  0  0  0  0
   -4.6524    1.3735    1.4526 H   0  0  0  0  0  0  0  0  0  0  0  0
   -3.6958    0.6159    2.7376 H   0  0  0  0  0  0  0  0  0  0  0  0
   -3.2455    2.2144    2.1430 H   0  0  0  0  0  0  0  0  0  0  0  0
    0.5018   -0.6352   -2.3957 H   0  0  0  0  0  0  0  0  0  0  0  0
   -0.2139    1.6588   -2.7283 H   0  0  0  0  0  0  0  0  0  0  0  0
   -0.1263    2.7593   -1.3466 H   0  0  0  0  0  0  0  0  0  0  0  0
    2.0184    1.0683   -2.3154 H   0  0  0  0  0  0  0  0  0  0  0  0
    4.0910    1.8141    0.4462 H   0  0  0  0  0  0  0  0  0  0  0  0
    4.0384    0.9915   -1.1081 H   0  0  0  0  0  0  0  0  0  0  0  0
    3.0978   -1.1128    0.1001 H   0  0  0  0  0  0  0  0  0  0  0  0
    3.3616   -0.2914    1.6395 H   0  0  0  0  0  0  0  0  0  0  0  0
    6.3340   -1.9827    1.6019 H   0  0  0  0  0  0  0  0  0  0  0  0
    0.6234    2.5193    0.8928 H   0  0  0  0  0  0  0  0  0  0  0  0
    2.1006    2.1624    1.8006 H   0  0  0  0  0  0  0  0  0  0  0  0
    0.9035    0.8910    1.5014 H   0  0  0  0  0  0  0  0  0  0  0  0
   -2.5766    3.5223   -1.3900 H   0  0  0  0  0  0  0  0  0  0  0  0
   -3.6899    3.2748    0.0105 H   0  0  0  0  0  0  0  0  0  0  0  0
   -2.4250    4.5649    0.0809 H   0  0  0  0  0  0  0  0  0  0  0  0
  1  3  1  0  0  0  0
  1  6  1  0  0  0  0
  2  1  2  0  0  0  0
  3  4  2  0  0  0  0
  4  7  1  0  0  0  0
  4  5  1  0  0  0  0
  5 25  1  0  0  0  0
  6  5  1  0  0  0  0
  7  8  1  0  0  0  0
  8 28  1  0  0  0  0
  8 27  1  0  0  0  0
  9 22  1  0  0  0  0
  9  7  2  0  0  0  0
 10  9  1  0  0  0  0
 11 10  2  0  0  0  0
 11  3  1  0  0  0  0
 12 11  1  0  0  0  0
 13 14  1  0  0  0  0
 13 31  1  0  0  0  0
 13 10  1  0  0  0  0
 14 15  2  0  0  0  0
 15 16  1  0  0  0  0
 15 21  1  0  0  0  0
 16 33  1  0  0  0  0
 16 17  1  0  0  0  0
 17 36  1  0  0  0  0
 18 17  1  0  0  0  0
 18 20  1  0  0  0  0
 19 18  2  0  0  0  0
 20 37  1  0  0  0  0
 21 40  1  0  0  0  0
 21 39  1  0  0  0  0
 23 42  1  0  0  0  0
 23 43  1  0  0  0  0
 23 22  1  0  0  0  0
 24  5  1  0  0  0  0
 26  8  1  0  0  0  0
 29 12  1  0  0  0  0
 30 13  1  0  0  0  0
 32 14  1  0  0  0  0
 34 16  1  0  0  0  0
 35 17  1  0  0  0  0
 38 21  1  0  0  0  0
 41 23  1  0  0  0  0
M  END
