astex_1meh_16.log
 OpenBabel10161801213D
Gaussian 16 # PM6 Opt
 43 44  0  0  0  0  0  0  0  0999 V2000
   -3.2748   -2.4373   -0.1335 C   0  0  0  0  0  0  0  0  0  0  0  0
   -3.0145   -3.5657    0.1659 O   0  0  0  0  0  0  0  0  0  0  0  0
   -2.6014   -1.1293   -0.0108 C   0  0  0  0  0  0  0  0  0  0  0  0
   -3.4390   -0.1243   -0.5600 C   0  0  0  0  0  0  0  0  0  0  0  0
   -4.6929   -0.7844   -1.0666 C   0  0  0  0  0  0  0  0  0  0  0  0
   -4.5251   -2.2044   -0.7658 O   0  0  0  0  0  0  0  0  0  0  0  0
   -3.0794    1.2113   -0.5877 C   0  0  0  0  0  0  0  0  0  0  0  0
   -3.9439    2.2506   -1.2125 C   0  0  0  0  0  0  0  0  0  0  0  0
   -1.8151    1.5322   -0.0149 C   0  0  0  0  0  0  0  0  0  0  0  0
   -0.9453    0.5794    0.5241 C   0  0  0  0  0  0  0  0  0  0  0  0
   -1.3545   -0.7864    0.5120 C   0  0  0  0  0  0  0  0  0  0  0  0
   -0.5980   -1.7943    1.0104 O   0  0  0  0  0  0  0  0  0  0  0  0
    0.3812    0.9880    1.0988 C   0  0  0  0  0  0  0  0  0  0  0  0
    1.5341    0.3729    0.3630 C   0  0  0  0  0  0  0  0  0  0  0  0
    2.5822   -0.2398    0.9341 C   0  0  0  0  0  0  0  0  0  0  0  0
    3.7056   -0.7857    0.0861 C   0  0  0  0  0  0  0  0  0  0  0  0
    4.6912    0.3284   -0.2844 C   0  0  0  0  0  0  0  0  0  0  0  0
    5.9087   -0.2296   -0.9571 C   0  0  0  0  0  0  0  0  0  0  0  0
    6.4101   -1.3262   -0.9034 O   0  0  0  0  0  0  0  0  0  0  0  0
    6.4941    0.7506   -1.7313 O   0  0  0  0  0  0  0  0  0  0  0  0
    2.7427   -0.4385    2.4065 C   0  0  0  0  0  0  0  0  0  0  0  0
   -1.3605    2.8499   -0.0640 O   0  0  0  0  0  0  0  0  0  0  0  0
   -1.9452    3.7206    0.9399 C   0  0  0  0  0  0  0  0  0  0  0  0
   -5.6110   -0.4693   -0.5417 H   0  0  0  0  0  0  0  0  0  0  0  0
   -4.8240   -0.7192   -2.1608 H   0  0  0  0  0  0  0  0  0  0  0  0
   -4.3837    1.8993   -2.1570 H   0  0  0  0  0  0  0  0  0  0  0  0
   -4.7717    2.5412   -0.5512 H   0  0  0  0  0  0  0  0  0  0  0  0
   -3.3699    3.1597   -1.4560 H   0  0  0  0  0  0  0  0  0  0  0  0
    0.3194   -1.4961    1.2789 H   0  0  0  0  0  0  0  0  0  0  0  0
    0.4876    2.1005    1.0352 H   0  0  0  0  0  0  0  0  0  0  0  0
    0.4082    0.7547    2.1866 H   0  0  0  0  0  0  0  0  0  0  0  0
    1.4706    0.4835   -0.7226 H   0  0  0  0  0  0  0  0  0  0  0  0
    3.3061   -1.2618   -0.8348 H   0  0  0  0  0  0  0  0  0  0  0  0
    4.2439   -1.6040    0.6138 H   0  0  0  0  0  0  0  0  0  0  0  0
    4.2033    1.0895   -0.9345 H   0  0  0  0  0  0  0  0  0  0  0  0
    5.0087    0.8905    0.6230 H   0  0  0  0  0  0  0  0  0  0  0  0
    7.3174    0.4376   -2.1925 H   0  0  0  0  0  0  0  0  0  0  0  0
    3.6738    0.0221    2.7689 H   0  0  0  0  0  0  0  0  0  0  0  0
    2.7979   -1.5061    2.6655 H   0  0  0  0  0  0  0  0  0  0  0  0
    1.9221   -0.0003    2.9924 H   0  0  0  0  0  0  0  0  0  0  0  0
   -1.6308    3.3952    1.9358 H   0  0  0  0  0  0  0  0  0  0  0  0
   -3.0348    3.7422    0.8544 H   0  0  0  0  0  0  0  0  0  0  0  0
   -1.5069    4.6924    0.6805 H   0  0  0  0  0  0  0  0  0  0  0  0
  1  3  1  0  0  0  0
  1  2  2  0  0  0  0
  3 11  2  0  0  0  0
  4  3  1  0  0  0  0
  5  6  1  0  0  0  0
  5  4  1  0  0  0  0
  5 24  1  0  0  0  0
  6  1  1  0  0  0  0
  7  4  2  0  0  0  0
  7  9  1  0  0  0  0
  8  7  1  0  0  0  0
  8 27  1  0  0  0  0
  9 10  2  0  0  0  0
 10 13  1  0  0  0  0
 11 10  1  0  0  0  0
 11 12  1  0  0  0  0
 12 29  1  0  0  0  0
 13 31  1  0  0  0  0
 14 15  2  0  0  0  0
 14 13  1  0  0  0  0
 15 21  1  0  0  0  0
 16 34  1  0  0  0  0
 16 15  1  0  0  0  0
 17 16  1  0  0  0  0
 17 36  1  0  0  0  0
 18 19  2  0  0  0  0
 18 17  1  0  0  0  0
 20 18  1  0  0  0  0
 21 39  1  0  0  0  0
 21 38  1  0  0  0  0
 21 40  1  0  0  0  0
 22  9  1  0  0  0  0
 22 23  1  0  0  0  0
 23 41  1  0  0  0  0
 25  5  1  0  0  0  0
 26  8  1  0  0  0  0
 28  8  1  0  0  0  0
 30 13  1  0  0  0  0
 32 14  1  0  0  0  0
 33 16  1  0  0  0  0
 35 17  1  0  0  0  0
 37 20  1  0  0  0  0
 42 23  1  0  0  0  0
 43 23  1  0  0  0  0
M  END
