astex_1meh_04.log
 OpenBabel10161801213D
Gaussian 16 # PM6 Opt
 43 44  0  0  0  0  0  0  0  0999 V2000
    2.4621    2.6318   -0.3243 C   0  0  0  0  0  0  0  0  0  0  0  0
    2.0588    3.5824   -0.9433 O   0  0  0  0  0  0  0  0  0  0  0  0
    2.0505    1.2230   -0.3150 C   0  0  0  0  0  0  0  0  0  0  0  0
    2.8662    0.5082    0.6035 C   0  0  0  0  0  0  0  0  0  0  0  0
    3.8316    1.4898    1.2125 C   0  0  0  0  0  0  0  0  0  0  0  0
    3.5215    2.7847    0.5822 O   0  0  0  0  0  0  0  0  0  0  0  0
    2.7075   -0.8451    0.8160 C   0  0  0  0  0  0  0  0  0  0  0  0
    3.5353   -1.6027    1.7944 C   0  0  0  0  0  0  0  0  0  0  0  0
    1.6739   -1.4879    0.0607 C   0  0  0  0  0  0  0  0  0  0  0  0
    0.8399   -0.8235   -0.8399 C   0  0  0  0  0  0  0  0  0  0  0  0
    1.0431    0.5760   -1.0227 C   0  0  0  0  0  0  0  0  0  0  0  0
    0.2412    1.2125   -1.9154 O   0  0  0  0  0  0  0  0  0  0  0  0
   -0.2713   -1.5229   -1.5697 C   0  0  0  0  0  0  0  0  0  0  0  0
   -1.4364   -1.7545   -0.6502 C   0  0  0  0  0  0  0  0  0  0  0  0
   -2.5458   -1.0020   -0.6089 C   0  0  0  0  0  0  0  0  0  0  0  0
   -3.6718   -1.3589    0.3351 C   0  0  0  0  0  0  0  0  0  0  0  0
   -3.8499   -0.3167    1.4469 C   0  0  0  0  0  0  0  0  0  0  0  0
   -4.7313    0.8087    0.9933 C   0  0  0  0  0  0  0  0  0  0  0  0
   -5.8477    0.7982    0.5329 O   0  0  0  0  0  0  0  0  0  0  0  0
   -4.0863    2.0141    1.1808 O   0  0  0  0  0  0  0  0  0  0  0  0
   -2.7751    0.2055   -1.4569 C   0  0  0  0  0  0  0  0  0  0  0  0
    1.4222   -2.8366    0.3052 O   0  0  0  0  0  0  0  0  0  0  0  0
    2.2795   -3.7419   -0.4388 C   0  0  0  0  0  0  0  0  0  0  0  0
    3.6916    1.6484    2.2956 H   0  0  0  0  0  0  0  0  0  0  0  0
    4.8903    1.2923    0.9735 H   0  0  0  0  0  0  0  0  0  0  0  0
    3.0570   -2.5576    2.0706 H   0  0  0  0  0  0  0  0  0  0  0  0
    3.6778   -1.0429    2.7293 H   0  0  0  0  0  0  0  0  0  0  0  0
    4.5305   -1.8331    1.3899 H   0  0  0  0  0  0  0  0  0  0  0  0
    0.4630    2.1982   -1.9764 H   0  0  0  0  0  0  0  0  0  0  0  0
   -0.5766   -0.9259   -2.4607 H   0  0  0  0  0  0  0  0  0  0  0  0
    0.0867   -2.4981   -1.9647 H   0  0  0  0  0  0  0  0  0  0  0  0
   -1.2974   -2.6054    0.0187 H   0  0  0  0  0  0  0  0  0  0  0  0
   -4.6184   -1.4748   -0.2387 H   0  0  0  0  0  0  0  0  0  0  0  0
   -3.4945   -2.3513    0.7998 H   0  0  0  0  0  0  0  0  0  0  0  0
   -4.3101   -0.7850    2.3442 H   0  0  0  0  0  0  0  0  0  0  0  0
   -2.8593    0.0707    1.7795 H   0  0  0  0  0  0  0  0  0  0  0  0
   -4.6376    2.7952    0.9111 H   0  0  0  0  0  0  0  0  0  0  0  0
   -3.7024    0.1279   -2.0385 H   0  0  0  0  0  0  0  0  0  0  0  0
   -1.9499    0.3830   -2.1669 H   0  0  0  0  0  0  0  0  0  0  0  0
   -2.8440    1.1143   -0.8387 H   0  0  0  0  0  0  0  0  0  0  0  0
    3.3299   -3.5712   -0.1889 H   0  0  0  0  0  0  0  0  0  0  0  0
    2.0995   -3.6273   -1.5118 H   0  0  0  0  0  0  0  0  0  0  0  0
    1.9378   -4.7216   -0.0822 H   0  0  0  0  0  0  0  0  0  0  0  0
  1  3  1  0  0  0  0
  1  6  1  0  0  0  0
  2  1  2  0  0  0  0
  3  4  2  0  0  0  0
  4  7  1  0  0  0  0
  4  5  1  0  0  0  0
  5 24  1  0  0  0  0
  6  5  1  0  0  0  0
  7  8  1  0  0  0  0
  8 26  1  0  0  0  0
  8 27  1  0  0  0  0
  9 22  1  0  0  0  0
  9  7  2  0  0  0  0
 10  9  1  0  0  0  0
 11 10  2  0  0  0  0
 11  3  1  0  0  0  0
 12 11  1  0  0  0  0
 13 10  1  0  0  0  0
 13 14  1  0  0  0  0
 14 15  2  0  0  0  0
 14 32  1  0  0  0  0
 15 16  1  0  0  0  0
 16 34  1  0  0  0  0
 16 17  1  0  0  0  0
 17 36  1  0  0  0  0
 17 35  1  0  0  0  0
 18 20  1  0  0  0  0
 18 17  1  0  0  0  0
 19 18  2  0  0  0  0
 21 40  1  0  0  0  0
 21 15  1  0  0  0  0
 23 41  1  0  0  0  0
 23 43  1  0  0  0  0
 23 22  1  0  0  0  0
 25  5  1  0  0  0  0
 28  8  1  0  0  0  0
 29 12  1  0  0  0  0
 30 13  1  0  0  0  0
 31 13  1  0  0  0  0
 33 16  1  0  0  0  0
 37 20  1  0  0  0  0
 38 21  1  0  0  0  0
 39 21  1  0  0  0  0
 42 23  1  0  0  0  0
M  END
