astex_1n2j_02.log
 OpenBabel10161801213D
Gaussian 16 # PM6 Opt
 22 21  0  0  1  0  0  0  0  0999 V2000
   -1.8520    1.2913    0.7040 O   0  0  0  0  0  0  0  0  0  0  0  0
   -1.6141    0.3275    0.0233 C   0  0  0  0  0  0  0  0  0  0  0  0
   -2.5730   -0.6479   -0.1521 O   0  0  0  0  0  0  0  0  0  0  0  0
   -0.3840   -0.0639   -0.7982 C   0  0  2  0  0  0  0  0  0  0  0  0
   -0.2829   -1.4891   -0.8482 O   0  0  0  0  0  0  0  0  0  0  0  0
    0.9649    0.4485   -0.1949 C   0  0  0  0  0  0  0  0  0  0  0  0
    2.1064   -0.0871   -1.0635 C   0  0  0  0  0  0  0  0  0  0  0  0
    0.9497    1.9810   -0.2045 C   0  0  0  0  0  0  0  0  0  0  0  0
    1.1301   -0.0466    1.2658 C   0  0  0  0  0  0  0  0  0  0  0  0
    1.3432   -1.4554    1.3543 O   0  0  0  0  0  0  0  0  0  0  0  0
   -3.4069   -0.4763    0.3619 H   0  0  0  0  0  0  0  0  0  0  0  0
   -0.5242    0.3216   -1.8383 H   0  0  0  0  0  0  0  0  0  0  0  0
   -1.1493   -1.8954   -1.1045 H   0  0  0  0  0  0  0  0  0  0  0  0
    2.0352    0.2458   -2.1024 H   0  0  0  0  0  0  0  0  0  0  0  0
    3.0823    0.2279   -0.6760 H   0  0  0  0  0  0  0  0  0  0  0  0
    2.1077   -1.1895   -1.0625 H   0  0  0  0  0  0  0  0  0  0  0  0
    1.8868    2.3886    0.1946 H   0  0  0  0  0  0  0  0  0  0  0  0
    0.1332    2.3927    0.4087 H   0  0  0  0  0  0  0  0  0  0  0  0
    0.8378    2.3873   -1.2153 H   0  0  0  0  0  0  0  0  0  0  0  0
    0.2566    0.2180    1.8896 H   0  0  0  0  0  0  0  0  0  0  0  0
    2.0438    0.3716    1.7302 H   0  0  0  0  0  0  0  0  0  0  0  0
    0.6953   -1.9406    0.7806 H   0  0  0  0  0  0  0  0  0  0  0  0
  2  1  2  0  0  0  0
  3  2  1  0  0  0  0
  3 11  1  0  0  0  0
  4 12  1  6  0  0  0
  4  6  1  0  0  0  0
  4  2  1  0  0  0  0
  5  4  1  0  0  0  0
  6  9  1  0  0  0  0
  7 16  1  0  0  0  0
  7 15  1  0  0  0  0
  7  6  1  0  0  0  0
  8  6  1  0  0  0  0
  8 17  1  0  0  0  0
  8 18  1  0  0  0  0
  9 10  1  0  0  0  0
  9 21  1  0  0  0  0
  9 20  1  0  0  0  0
 13  5  1  0  0  0  0
 14  7  1  0  0  0  0
 19  8  1  0  0  0  0
 22 10  1  0  0  0  0
M  END
