astex_1meh_22.log
 OpenBabel10161801213D
Gaussian 16 # PM6 Opt
 43 44  0  0  0  0  0  0  0  0999 V2000
    3.5090   -2.2056    0.0207 C   0  0  0  0  0  0  0  0  0  0  0  0
    3.3647   -3.3699    0.2529 O   0  0  0  0  0  0  0  0  0  0  0  0
    2.6513   -1.0046    0.0721 C   0  0  0  0  0  0  0  0  0  0  0  0
    3.4110    0.1243   -0.3290 C   0  0  0  0  0  0  0  0  0  0  0  0
    4.8032   -0.3415   -0.6596 C   0  0  0  0  0  0  0  0  0  0  0  0
    4.7914   -1.7826   -0.4178 O   0  0  0  0  0  0  0  0  0  0  0  0
    2.8778    1.4002   -0.3833 C   0  0  0  0  0  0  0  0  0  0  0  0
    3.6710    2.5689   -0.8550 C   0  0  0  0  0  0  0  0  0  0  0  0
    1.5130    1.5260    0.0039 C   0  0  0  0  0  0  0  0  0  0  0  0
    0.7163    0.4439    0.3922 C   0  0  0  0  0  0  0  0  0  0  0  0
    1.3084   -0.8523    0.4170 C   0  0  0  0  0  0  0  0  0  0  0  0
    0.6356   -1.9711    0.7816 O   0  0  0  0  0  0  0  0  0  0  0  0
   -0.7237    0.6470    0.7683 C   0  0  0  0  0  0  0  0  0  0  0  0
   -1.6554   -0.0905   -0.1464 C   0  0  0  0  0  0  0  0  0  0  0  0
   -2.7062   -0.8269    0.2467 C   0  0  0  0  0  0  0  0  0  0  0  0
   -3.5972   -1.4981   -0.7730 C   0  0  0  0  0  0  0  0  0  0  0  0
   -4.5002   -0.5020   -1.5097 C   0  0  0  0  0  0  0  0  0  0  0  0
   -5.4949    0.1403   -0.5734 C   0  0  0  0  0  0  0  0  0  0  0  0
   -6.6601   -0.1289   -0.4480 O   0  0  0  0  0  0  0  0  0  0  0  0
   -5.0094    1.1623    0.2203 O   0  0  0  0  0  0  0  0  0  0  0  0
   -3.0999   -1.0356    1.6715 C   0  0  0  0  0  0  0  0  0  0  0  0
    0.8871    2.7684   -0.0889 O   0  0  0  0  0  0  0  0  0  0  0  0
    1.2024    3.6808    0.9959 C   0  0  0  0  0  0  0  0  0  0  0  0
    5.5847    0.0710    0.0018 H   0  0  0  0  0  0  0  0  0  0  0  0
    5.0800   -0.2142   -1.7209 H   0  0  0  0  0  0  0  0  0  0  0  0
    4.3429    2.9462   -0.0716 H   0  0  0  0  0  0  0  0  0  0  0  0
    3.0184    3.3996   -1.1700 H   0  0  0  0  0  0  0  0  0  0  0  0
    4.2914    2.3146   -1.7265 H   0  0  0  0  0  0  0  0  0  0  0  0
   -0.3381   -1.8052    0.9421 H   0  0  0  0  0  0  0  0  0  0  0  0
   -0.8780    0.3672    1.8350 H   0  0  0  0  0  0  0  0  0  0  0  0
   -0.9706    1.7372    0.7143 H   0  0  0  0  0  0  0  0  0  0  0  0
   -1.4131    0.0252   -1.2060 H   0  0  0  0  0  0  0  0  0  0  0  0
   -2.9771   -2.0443   -1.5172 H   0  0  0  0  0  0  0  0  0  0  0  0
   -4.2232   -2.2829   -0.2954 H   0  0  0  0  0  0  0  0  0  0  0  0
   -5.0607   -1.0326   -2.3131 H   0  0  0  0  0  0  0  0  0  0  0  0
   -3.8966    0.2669   -2.0335 H   0  0  0  0  0  0  0  0  0  0  0  0
   -4.0399    1.3304    0.1349 H   0  0  0  0  0  0  0  0  0  0  0  0
   -2.3970   -0.5865    2.3874 H   0  0  0  0  0  0  0  0  0  0  0  0
   -4.0889   -0.5884    1.8765 H   0  0  0  0  0  0  0  0  0  0  0  0
   -3.1814   -2.1031    1.9223 H   0  0  0  0  0  0  0  0  0  0  0  0
    2.2793    3.8570    1.0610 H   0  0  0  0  0  0  0  0  0  0  0  0
    0.6691    4.5898    0.6901 H   0  0  0  0  0  0  0  0  0  0  0  0
    0.8069    3.2839    1.9354 H   0  0  0  0  0  0  0  0  0  0  0  0
  1  3  1  0  0  0  0
  1  2  2  0  0  0  0
  3 11  2  0  0  0  0
  4  3  1  0  0  0  0
  5  6  1  0  0  0  0
  5  4  1  0  0  0  0
  5 24  1  0  0  0  0
  6  1  1  0  0  0  0
  7  4  2  0  0  0  0
  7  9  1  0  0  0  0
  8  7  1  0  0  0  0
  8 26  1  0  0  0  0
  9 10  2  0  0  0  0
 10 11  1  0  0  0  0
 10 13  1  0  0  0  0
 11 12  1  0  0  0  0
 12 29  1  0  0  0  0
 13 30  1  0  0  0  0
 14 15  2  0  0  0  0
 14 13  1  0  0  0  0
 15 21  1  0  0  0  0
 16 34  1  0  0  0  0
 16 15  1  0  0  0  0
 17 16  1  0  0  0  0
 17 18  1  0  0  0  0
 18 19  2  0  0  0  0
 18 20  1  0  0  0  0
 21 39  1  0  0  0  0
 21 40  1  0  0  0  0
 21 38  1  0  0  0  0
 22  9  1  0  0  0  0
 22 23  1  0  0  0  0
 23 41  1  0  0  0  0
 23 43  1  0  0  0  0
 25  5  1  0  0  0  0
 27  8  1  0  0  0  0
 28  8  1  0  0  0  0
 31 13  1  0  0  0  0
 32 14  1  0  0  0  0
 33 16  1  0  0  0  0
 35 17  1  0  0  0  0
 36 17  1  0  0  0  0
 37 20  1  0  0  0  0
 42 23  1  0  0  0  0
M  END
