astex_1meh_17.log
 OpenBabel10161801213D
Gaussian 16 # PM6 Opt
 43 44  0  0  0  0  0  0  0  0999 V2000
   -3.6859   -2.2524   -0.0091 C   0  0  0  0  0  0  0  0  0  0  0  0
   -3.5074   -3.4003    0.3060 O   0  0  0  0  0  0  0  0  0  0  0  0
   -2.8525   -1.0537    0.1471 C   0  0  0  0  0  0  0  0  0  0  0  0
   -3.5404    0.0623   -0.4001 C   0  0  0  0  0  0  0  0  0  0  0  0
   -4.8612   -0.4308   -0.9271 C   0  0  0  0  0  0  0  0  0  0  0  0
   -4.8759   -1.8775   -0.6494 O   0  0  0  0  0  0  0  0  0  0  0  0
   -2.9914    1.3279   -0.3945 C   0  0  0  0  0  0  0  0  0  0  0  0
   -3.6989    2.5111   -0.9556 C   0  0  0  0  0  0  0  0  0  0  0  0
   -1.6928    1.4533    0.1956 C   0  0  0  0  0  0  0  0  0  0  0  0
   -0.9860    0.3874    0.7557 C   0  0  0  0  0  0  0  0  0  0  0  0
   -1.5948   -0.9011    0.7214 C   0  0  0  0  0  0  0  0  0  0  0  0
   -0.8999   -1.9307    1.2683 O   0  0  0  0  0  0  0  0  0  0  0  0
    0.3518    0.5671    1.4114 C   0  0  0  0  0  0  0  0  0  0  0  0
    1.4808    0.1674    0.5092 C   0  0  0  0  0  0  0  0  0  0  0  0
    2.6581    0.8044    0.4240 C   0  0  0  0  0  0  0  0  0  0  0  0
    3.7445    0.2858   -0.4896 C   0  0  0  0  0  0  0  0  0  0  0  0
    4.5323   -0.8391    0.1947 C   0  0  0  0  0  0  0  0  0  0  0  0
    5.6931   -1.2828   -0.6575 C   0  0  0  0  0  0  0  0  0  0  0  0
    5.7938   -2.2927   -1.3007 O   0  0  0  0  0  0  0  0  0  0  0  0
    6.7751   -0.4193   -0.6980 O   0  0  0  0  0  0  0  0  0  0  0  0
    3.0083    2.0303    1.2050 C   0  0  0  0  0  0  0  0  0  0  0  0
   -1.1814    2.7446    0.2942 O   0  0  0  0  0  0  0  0  0  0  0  0
   -0.1887    3.0702   -0.7158 C   0  0  0  0  0  0  0  0  0  0  0  0
   -5.7398   -0.0203   -0.4003 H   0  0  0  0  0  0  0  0  0  0  0  0
   -4.9759   -0.3392   -2.0207 H   0  0  0  0  0  0  0  0  0  0  0  0
   -3.7794    2.4532   -2.0497 H   0  0  0  0  0  0  0  0  0  0  0  0
   -3.1703    3.4489   -0.7126 H   0  0  0  0  0  0  0  0  0  0  0  0
   -4.7150    2.6084   -0.5482 H   0  0  0  0  0  0  0  0  0  0  0  0
   -1.4151   -2.8006    1.2086 H   0  0  0  0  0  0  0  0  0  0  0  0
    0.4582    1.6206    1.7622 H   0  0  0  0  0  0  0  0  0  0  0  0
    0.3973   -0.0612    2.3341 H   0  0  0  0  0  0  0  0  0  0  0  0
    1.2821   -0.7322   -0.0788 H   0  0  0  0  0  0  0  0  0  0  0  0
    4.4244    1.1067   -0.7936 H   0  0  0  0  0  0  0  0  0  0  0  0
    3.3042   -0.0916   -1.4384 H   0  0  0  0  0  0  0  0  0  0  0  0
    4.8736   -0.5264    1.2019 H   0  0  0  0  0  0  0  0  0  0  0  0
    3.8613   -1.7103    0.3780 H   0  0  0  0  0  0  0  0  0  0  0  0
    6.6767    0.4009   -0.1690 H   0  0  0  0  0  0  0  0  0  0  0  0
    3.4326    2.8167    0.5679 H   0  0  0  0  0  0  0  0  0  0  0  0
    3.7485    1.8020    1.9845 H   0  0  0  0  0  0  0  0  0  0  0  0
    2.1338    2.4659    1.7142 H   0  0  0  0  0  0  0  0  0  0  0  0
    0.1032    4.0867   -0.4269 H   0  0  0  0  0  0  0  0  0  0  0  0
   -0.6539    3.0552   -1.7053 H   0  0  0  0  0  0  0  0  0  0  0  0
    0.6599    2.3799   -0.6599 H   0  0  0  0  0  0  0  0  0  0  0  0
  1  3  1  0  0  0  0
  1  2  2  0  0  0  0
  3 11  2  0  0  0  0
  4  7  2  0  0  0  0
  4  3  1  0  0  0  0
  5  6  1  0  0  0  0
  5 24  1  0  0  0  0
  5  4  1  0  0  0  0
  6  1  1  0  0  0  0
  7  9  1  0  0  0  0
  8 27  1  0  0  0  0
  8 28  1  0  0  0  0
  8  7  1  0  0  0  0
  9 22  1  0  0  0  0
  9 10  2  0  0  0  0
 10 13  1  0  0  0  0
 11 10  1  0  0  0  0
 11 12  1  0  0  0  0
 13 30  1  0  0  0  0
 13 31  1  0  0  0  0
 14 13  1  0  0  0  0
 15 14  2  0  0  0  0
 15 21  1  0  0  0  0
 16 17  1  0  0  0  0
 16 15  1  0  0  0  0
 17 36  1  0  0  0  0
 17 35  1  0  0  0  0
 18 17  1  0  0  0  0
 19 18  2  0  0  0  0
 20 18  1  0  0  0  0
 20 37  1  0  0  0  0
 21 40  1  0  0  0  0
 21 39  1  0  0  0  0
 23 43  1  0  0  0  0
 23 41  1  0  0  0  0
 23 22  1  0  0  0  0
 25  5  1  0  0  0  0
 26  8  1  0  0  0  0
 29 12  1  0  0  0  0
 32 14  1  0  0  0  0
 33 16  1  0  0  0  0
 34 16  1  0  0  0  0
 38 21  1  0  0  0  0
 42 23  1  0  0  0  0
M  END
