astex_1meh_15.log
 OpenBabel10161801213D
Gaussian 16 # PM6 Opt
 43 44  0  0  0  0  0  0  0  0999 V2000
   -3.1698   -2.4398   -0.0415 C   0  0  0  0  0  0  0  0  0  0  0  0
   -2.8302   -3.5443   -0.3792 O   0  0  0  0  0  0  0  0  0  0  0  0
   -2.5026   -1.1364   -0.1451 C   0  0  0  0  0  0  0  0  0  0  0  0
   -3.3478   -0.1382    0.4103 C   0  0  0  0  0  0  0  0  0  0  0  0
   -4.5998   -0.8205    0.8934 C   0  0  0  0  0  0  0  0  0  0  0  0
   -4.4150   -2.2468    0.5742 O   0  0  0  0  0  0  0  0  0  0  0  0
   -2.9776    1.1900    0.4470 C   0  0  0  0  0  0  0  0  0  0  0  0
   -3.8380    2.2411    1.0566 C   0  0  0  0  0  0  0  0  0  0  0  0
   -1.6956    1.5048   -0.1081 C   0  0  0  0  0  0  0  0  0  0  0  0
   -0.8273    0.5557   -0.6508 C   0  0  0  0  0  0  0  0  0  0  0  0
   -1.2540   -0.8045   -0.6608 C   0  0  0  0  0  0  0  0  0  0  0  0
   -0.4122   -1.7220   -1.2033 O   0  0  0  0  0  0  0  0  0  0  0  0
    0.5321    0.9234   -1.1740 C   0  0  0  0  0  0  0  0  0  0  0  0
    1.5188    1.0007   -0.0443 C   0  0  0  0  0  0  0  0  0  0  0  0
    2.5009    0.1163    0.1836 C   0  0  0  0  0  0  0  0  0  0  0  0
    3.4383    0.3112    1.3554 C   0  0  0  0  0  0  0  0  0  0  0  0
    4.8196    0.7972    0.9055 C   0  0  0  0  0  0  0  0  0  0  0  0
    5.6304   -0.2615    0.2021 C   0  0  0  0  0  0  0  0  0  0  0  0
    6.2568   -0.1409   -0.8176 O   0  0  0  0  0  0  0  0  0  0  0  0
    5.6905   -1.5010    0.8153 O   0  0  0  0  0  0  0  0  0  0  0  0
    2.7536   -1.0844   -0.6665 C   0  0  0  0  0  0  0  0  0  0  0  0
   -1.2373    2.8175   -0.0217 O   0  0  0  0  0  0  0  0  0  0  0  0
   -1.7442    3.6940   -1.0627 C   0  0  0  0  0  0  0  0  0  0  0  0
   -5.5163   -0.5160    0.3602 H   0  0  0  0  0  0  0  0  0  0  0  0
   -4.7441   -0.7799    1.9867 H   0  0  0  0  0  0  0  0  0  0  0  0
   -3.2531    3.1405    1.3130 H   0  0  0  0  0  0  0  0  0  0  0  0
   -4.6439    2.5496    0.3764 H   0  0  0  0  0  0  0  0  0  0  0  0
   -4.3054    1.8967    1.9897 H   0  0  0  0  0  0  0  0  0  0  0  0
   -0.8112   -2.6526   -1.1780 H   0  0  0  0  0  0  0  0  0  0  0  0
    0.4901    1.9106   -1.6858 H   0  0  0  0  0  0  0  0  0  0  0  0
    0.8497    0.1933   -1.9512 H   0  0  0  0  0  0  0  0  0  0  0  0
    1.3605    1.8610    0.6087 H   0  0  0  0  0  0  0  0  0  0  0  0
    3.0154    1.0462    2.0736 H   0  0  0  0  0  0  0  0  0  0  0  0
    3.5225   -0.6351    1.9302 H   0  0  0  0  0  0  0  0  0  0  0  0
    5.3978    1.1839    1.7709 H   0  0  0  0  0  0  0  0  0  0  0  0
    4.7058    1.6694    0.2199 H   0  0  0  0  0  0  0  0  0  0  0  0
    5.1476   -1.5830    1.6341 H   0  0  0  0  0  0  0  0  0  0  0  0
    1.8101   -1.5739   -0.9645 H   0  0  0  0  0  0  0  0  0  0  0  0
    3.2800   -0.8098   -1.5939 H   0  0  0  0  0  0  0  0  0  0  0  0
    3.3652   -1.8500   -0.1729 H   0  0  0  0  0  0  0  0  0  0  0  0
   -1.2934    4.6557   -0.7877 H   0  0  0  0  0  0  0  0  0  0  0  0
   -2.8357    3.7426   -1.0316 H   0  0  0  0  0  0  0  0  0  0  0  0
   -1.3869    3.3548   -2.0395 H   0  0  0  0  0  0  0  0  0  0  0  0
  1  6  1  0  0  0  0
  2  1  2  0  0  0  0
  3  1  1  0  0  0  0
  3  4  2  0  0  0  0
  4  7  1  0  0  0  0
  4  5  1  0  0  0  0
  5 25  1  0  0  0  0
  6  5  1  0  0  0  0
  7  8  1  0  0  0  0
  8 26  1  0  0  0  0
  8 28  1  0  0  0  0
  9 22  1  0  0  0  0
  9  7  2  0  0  0  0
 10  9  1  0  0  0  0
 11 10  2  0  0  0  0
 11  3  1  0  0  0  0
 12 29  1  0  0  0  0
 12 11  1  0  0  0  0
 13 10  1  0  0  0  0
 13 14  1  0  0  0  0
 14 15  2  0  0  0  0
 14 32  1  0  0  0  0
 15 16  1  0  0  0  0
 16 34  1  0  0  0  0
 16 33  1  0  0  0  0
 17 16  1  0  0  0  0
 17 35  1  0  0  0  0
 18 20  1  0  0  0  0
 18 17  1  0  0  0  0
 19 18  2  0  0  0  0
 20 37  1  0  0  0  0
 21 40  1  0  0  0  0
 21 15  1  0  0  0  0
 23 42  1  0  0  0  0
 23 41  1  0  0  0  0
 23 22  1  0  0  0  0
 24  5  1  0  0  0  0
 27  8  1  0  0  0  0
 30 13  1  0  0  0  0
 31 13  1  0  0  0  0
 36 17  1  0  0  0  0
 38 21  1  0  0  0  0
 39 21  1  0  0  0  0
 43 23  1  0  0  0  0
M  END
