astex_1of1_00.log
 OpenBabel10161801213D
Gaussian 16 # PM6 Opt
 34 36  0  0  1  0  0  0  0  0999 V2000
    2.8180    2.1151   -0.6386 O   0  0  0  0  0  0  0  0  0  0  0  0
    3.4847    1.4211    0.4168 C   0  0  0  0  0  0  0  0  0  0  0  0
    2.9713   -0.0208    0.5581 C   0  0  2  0  0  0  0  0  0  0  0  0
    2.7841   -0.6833   -0.8435 C   0  0  1  0  0  0  0  0  0  0  0  0
    3.4964   -1.9338   -0.8754 O   0  0  0  0  0  0  0  0  0  0  0  0
    1.3018   -1.0756   -1.0336 C   0  0  0  0  0  0  0  0  0  0  0  0
    0.6029   -0.7152    0.2680 C   0  0  2  0  0  0  0  0  0  0  0  0
   -0.7727   -0.2306    0.1462 N   0  0  0  0  0  0  0  0  0  0  0  0
   -1.0198    1.1725    0.0413 C   0  0  0  0  0  0  0  0  0  0  0  0
   -0.1308    2.0047    0.0876 O   0  0  0  0  0  0  0  0  0  0  0  0
   -2.3744    1.5404   -0.1068 N   0  0  0  0  0  0  0  0  0  0  0  0
   -3.4896    0.6265   -0.1612 C   0  0  0  0  0  0  0  0  0  0  0  0
   -4.5899    1.1137   -0.2913 O   0  0  0  0  0  0  0  0  0  0  0  0
   -3.1162   -0.7921   -0.0475 C   0  0  0  0  0  0  0  0  0  0  0  0
   -1.8210   -1.1710    0.0953 C   0  0  0  0  0  0  0  0  0  0  0  0
   -4.2401   -1.7676   -0.1002 C   0  0  0  0  0  0  0  0  0  0  0  0
    1.6114   -0.0774    1.2409 C   0  0  1  0  0  0  0  0  0  0  0  0
    1.0249   -1.4489    1.5375 C   0  0  0  0  0  0  0  0  0  0  0  0
    1.8441    2.1884   -0.4417 H   0  0  0  0  0  0  0  0  0  0  0  0
    3.3738    1.9890    1.3582 H   0  0  0  0  0  0  0  0  0  0  0  0
    4.5443    1.4482    0.0982 H   0  0  0  0  0  0  0  0  0  0  0  0
    3.7084   -0.6184    1.1468 H   0  0  0  0  0  0  0  0  0  0  0  0
    3.1519   -0.0289   -1.6620 H   0  0  0  0  0  0  0  0  0  0  0  0
    4.4462   -1.7902   -1.0399 H   0  0  0  0  0  0  0  0  0  0  0  0
    1.2281   -2.1601   -1.2555 H   0  0  0  0  0  0  0  0  0  0  0  0
    0.8634   -0.5448   -1.8977 H   0  0  0  0  0  0  0  0  0  0  0  0
   -2.5741    2.5500   -0.1830 H   0  0  0  0  0  0  0  0  0  0  0  0
   -1.5185   -2.2235    0.1801 H   0  0  0  0  0  0  0  0  0  0  0  0
   -4.9693   -1.5725    0.7037 H   0  0  0  0  0  0  0  0  0  0  0  0
   -3.9120   -2.8093   -0.0050 H   0  0  0  0  0  0  0  0  0  0  0  0
   -4.7948   -1.6780   -1.0492 H   0  0  0  0  0  0  0  0  0  0  0  0
    1.3466    0.7707    1.8742 H   0  0  0  0  0  0  0  0  0  0  0  0
    1.6502   -2.3391    1.4425 H   0  0  0  0  0  0  0  0  0  0  0  0
    0.3271   -1.5563    2.3646 H   0  0  0  0  0  0  0  0  0  0  0  0
  1 19  1  0  0  0  0
  1  2  1  0  0  0  0
  2  3  1  0  0  0  0
  2 20  1  0  0  0  0
  3 22  1  1  0  0  0
  3 17  1  0  0  0  0
  4 23  1  6  0  0  0
  4  3  1  0  0  0  0
  5  4  1  0  0  0  0
  6  4  1  0  0  0  0
  6  7  1  0  0  0  0
  7  8  1  6  0  0  0
  7 17  1  0  0  0  0
  7 18  1  0  0  0  0
  9 10  2  0  0  0  0
  9  8  1  0  0  0  0
 11  9  1  0  0  0  0
 12 11  1  0  0  0  0
 12 14  1  0  0  0  0
 13 12  2  0  0  0  0
 14 15  2  0  0  0  0
 15  8  1  0  0  0  0
 15 28  1  0  0  0  0
 16 14  1  0  0  0  0
 16 30  1  0  0  0  0
 16 29  1  0  0  0  0
 17 18  1  0  0  0  0
 17 32  1  1  0  0  0
 18 34  1  0  0  0  0
 21  2  1  0  0  0  0
 24  5  1  0  0  0  0
 25  6  1  0  0  0  0
 26  6  1  0  0  0  0
 27 11  1  0  0  0  0
 31 16  1  0  0  0  0
 33 18  1  0  0  0  0
M  END
