astex_1meh_00.log
 OpenBabel10161801213D
Gaussian 16 # PM6 Opt
 43 44  0  0  0  0  0  0  0  0999 V2000
    4.0397   -1.1835    0.7815 C   0  0  0  0  0  0  0  0  0  0  0  0
    4.3724   -2.3338    0.9097 O   0  0  0  0  0  0  0  0  0  0  0  0
    2.8669   -0.5675    0.1521 C   0  0  0  0  0  0  0  0  0  0  0  0
    2.9609    0.8452    0.2801 C   0  0  0  0  0  0  0  0  0  0  0  0
    4.2391    1.1507    1.0140 C   0  0  0  0  0  0  0  0  0  0  0  0
    4.8506   -0.1602    1.2948 O   0  0  0  0  0  0  0  0  0  0  0  0
    1.9897    1.6860   -0.2198 C   0  0  0  0  0  0  0  0  0  0  0  0
    2.0744    3.1679   -0.1080 C   0  0  0  0  0  0  0  0  0  0  0  0
    0.8803    1.0578   -0.8748 C   0  0  0  0  0  0  0  0  0  0  0  0
    0.7530   -0.3240   -1.0319 C   0  0  0  0  0  0  0  0  0  0  0  0
    1.7839   -1.1500   -0.4982 C   0  0  0  0  0  0  0  0  0  0  0  0
    1.6505   -2.4925   -0.6550 O   0  0  0  0  0  0  0  0  0  0  0  0
   -0.4127   -0.9386   -1.7511 C   0  0  0  0  0  0  0  0  0  0  0  0
   -1.4354   -1.4610   -0.7864 C   0  0  0  0  0  0  0  0  0  0  0  0
   -2.7504   -1.2057   -0.8470 C   0  0  0  0  0  0  0  0  0  0  0  0
   -3.6885   -1.7820    0.1899 C   0  0  0  0  0  0  0  0  0  0  0  0
   -3.6011   -1.0339    1.5283 C   0  0  0  0  0  0  0  0  0  0  0  0
   -4.1446    0.3585    1.4103 C   0  0  0  0  0  0  0  0  0  0  0  0
   -3.6904    1.3434    0.8738 O   0  0  0  0  0  0  0  0  0  0  0  0
   -5.3553    0.4449    2.0606 O   0  0  0  0  0  0  0  0  0  0  0  0
   -3.3989   -0.3550   -1.8900 C   0  0  0  0  0  0  0  0  0  0  0  0
   -0.0589    1.8886   -1.4736 O   0  0  0  0  0  0  0  0  0  0  0  0
   -1.1972    2.2066   -0.6230 C   0  0  0  0  0  0  0  0  0  0  0  0
    4.0939    1.6251    1.9992 H   0  0  0  0  0  0  0  0  0  0  0  0
    4.9840    1.7009    0.4140 H   0  0  0  0  0  0  0  0  0  0  0  0
    3.0727    3.5427   -0.3710 H   0  0  0  0  0  0  0  0  0  0  0  0
    1.3602    3.6618   -0.7898 H   0  0  0  0  0  0  0  0  0  0  0  0
    1.8440    3.5092    0.9107 H   0  0  0  0  0  0  0  0  0  0  0  0
    2.4373   -2.9916   -0.2608 H   0  0  0  0  0  0  0  0  0  0  0  0
   -0.8554   -0.1901   -2.4511 H   0  0  0  0  0  0  0  0  0  0  0  0
   -0.0559   -1.7798   -2.3907 H   0  0  0  0  0  0  0  0  0  0  0  0
   -1.0164   -2.0977   -0.0047 H   0  0  0  0  0  0  0  0  0  0  0  0
   -3.4494   -2.8535    0.3631 H   0  0  0  0  0  0  0  0  0  0  0  0
   -4.7354   -1.7789   -0.1774 H   0  0  0  0  0  0  0  0  0  0  0  0
   -4.1550   -1.5970    2.3127 H   0  0  0  0  0  0  0  0  0  0  0  0
   -2.5427   -0.9791    1.8700 H   0  0  0  0  0  0  0  0  0  0  0  0
   -5.7595    1.3521    2.0149 H   0  0  0  0  0  0  0  0  0  0  0  0
   -3.9351    0.4910   -1.4324 H   0  0  0  0  0  0  0  0  0  0  0  0
   -4.1198   -0.9273   -2.4877 H   0  0  0  0  0  0  0  0  0  0  0  0
   -2.6672    0.0772   -2.5916 H   0  0  0  0  0  0  0  0  0  0  0  0
   -0.8655    2.7884    0.2396 H   0  0  0  0  0  0  0  0  0  0  0  0
   -1.7189    1.2912   -0.3126 H   0  0  0  0  0  0  0  0  0  0  0  0
   -1.8239    2.8042   -1.2939 H   0  0  0  0  0  0  0  0  0  0  0  0
  1  2  2  0  0  0  0
  1  6  1  0  0  0  0
  3  4  1  0  0  0  0
  3  1  1  0  0  0  0
  4  5  1  0  0  0  0
  5  6  1  0  0  0  0
  5 24  1  0  0  0  0
  7  8  1  0  0  0  0
  7  4  2  0  0  0  0
  8 28  1  0  0  0  0
  9  7  1  0  0  0  0
 10  9  2  0  0  0  0
 10 11  1  0  0  0  0
 11  3  2  0  0  0  0
 12 11  1  0  0  0  0
 12 29  1  0  0  0  0
 13 10  1  0  0  0  0
 13 14  1  0  0  0  0
 14 32  1  0  0  0  0
 15 14  2  0  0  0  0
 15 16  1  0  0  0  0
 16 33  1  0  0  0  0
 16 17  1  0  0  0  0
 17 36  1  0  0  0  0
 17 35  1  0  0  0  0
 18 17  1  0  0  0  0
 18 20  1  0  0  0  0
 19 18  2  0  0  0  0
 21 38  1  0  0  0  0
 21 15  1  0  0  0  0
 22  9  1  0  0  0  0
 22 23  1  0  0  0  0
 23 42  1  0  0  0  0
 23 41  1  0  0  0  0
 25  5  1  0  0  0  0
 26  8  1  0  0  0  0
 27  8  1  0  0  0  0
 30 13  1  0  0  0  0
 31 13  1  0  0  0  0
 34 16  1  0  0  0  0
 37 20  1  0  0  0  0
 39 21  1  0  0  0  0
 40 21  1  0  0  0  0
 43 23  1  0  0  0  0
M  END
