astex_1meh_26.log
 OpenBabel10161801213D
Gaussian 16 # PM6 Opt
 43 44  0  0  0  0  0  0  0  0999 V2000
   -3.7220   -1.9196   -0.1312 C   0  0  0  0  0  0  0  0  0  0  0  0
   -3.8562   -3.0760    0.1427 O   0  0  0  0  0  0  0  0  0  0  0  0
   -2.6907   -0.8903    0.1113 C   0  0  0  0  0  0  0  0  0  0  0  0
   -3.1104    0.3318   -0.4741 C   0  0  0  0  0  0  0  0  0  0  0  0
   -4.4487    0.1052   -1.1236 C   0  0  0  0  0  0  0  0  0  0  0  0
   -4.7636   -1.2991   -0.8694 O   0  0  0  0  0  0  0  0  0  0  0  0
   -2.3482    1.4852   -0.4145 C   0  0  0  0  0  0  0  0  0  0  0  0
   -2.7744    2.7498   -1.0753 C   0  0  0  0  0  0  0  0  0  0  0  0
   -1.1133    1.3840    0.2873 C   0  0  0  0  0  0  0  0  0  0  0  0
   -0.6478    0.2030    0.8742 C   0  0  0  0  0  0  0  0  0  0  0  0
   -1.4621   -0.9616    0.7672 C   0  0  0  0  0  0  0  0  0  0  0  0
   -1.1176   -2.1630    1.2953 O   0  0  0  0  0  0  0  0  0  0  0  0
    0.6762    0.1683    1.5875 C   0  0  0  0  0  0  0  0  0  0  0  0
    1.6656   -0.7614    0.9463 C   0  0  0  0  0  0  0  0  0  0  0  0
    2.2540   -0.5604   -0.2444 C   0  0  0  0  0  0  0  0  0  0  0  0
    3.2367   -1.5743   -0.7883 C   0  0  0  0  0  0  0  0  0  0  0  0
    4.5898   -1.5298   -0.0711 C   0  0  0  0  0  0  0  0  0  0  0  0
    5.3629   -0.2754   -0.4016 C   0  0  0  0  0  0  0  0  0  0  0  0
    6.3196   -0.1812   -1.1245 O   0  0  0  0  0  0  0  0  0  0  0  0
    4.9385    0.8855    0.2134 O   0  0  0  0  0  0  0  0  0  0  0  0
    2.0169    0.6239   -1.1164 C   0  0  0  0  0  0  0  0  0  0  0  0
   -0.2580    2.4863    0.3193 O   0  0  0  0  0  0  0  0  0  0  0  0
   -0.6221    3.5024    1.2909 C   0  0  0  0  0  0  0  0  0  0  0  0
   -5.2717    0.6870   -0.6735 H   0  0  0  0  0  0  0  0  0  0  0  0
   -4.4414    0.2204   -2.2216 H   0  0  0  0  0  0  0  0  0  0  0  0
   -1.9217    3.4296   -1.2359 H   0  0  0  0  0  0  0  0  0  0  0  0
   -3.2139    2.5639   -2.0658 H   0  0  0  0  0  0  0  0  0  0  0  0
   -3.5247    3.2864   -0.4780 H   0  0  0  0  0  0  0  0  0  0  0  0
   -0.1996   -2.1638    1.6852 H   0  0  0  0  0  0  0  0  0  0  0  0
    0.5167   -0.1052    2.6526 H   0  0  0  0  0  0  0  0  0  0  0  0
    1.1054    1.2000    1.6173 H   0  0  0  0  0  0  0  0  0  0  0  0
    1.8979   -1.6504    1.5325 H   0  0  0  0  0  0  0  0  0  0  0  0
    3.3868   -1.4297   -1.8805 H   0  0  0  0  0  0  0  0  0  0  0  0
    2.8110   -2.5975   -0.6993 H   0  0  0  0  0  0  0  0  0  0  0  0
    5.2009   -2.4094   -0.3788 H   0  0  0  0  0  0  0  0  0  0  0  0
    4.4617   -1.6322    1.0254 H   0  0  0  0  0  0  0  0  0  0  0  0
    4.1125    0.7978    0.7475 H   0  0  0  0  0  0  0  0  0  0  0  0
    1.4804    1.4416   -0.6046 H   0  0  0  0  0  0  0  0  0  0  0  0
    1.3998    0.3553   -1.9874 H   0  0  0  0  0  0  0  0  0  0  0  0
    2.9547    1.0513   -1.5029 H   0  0  0  0  0  0  0  0  0  0  0  0
    0.1317    4.2775    1.1032 H   0  0  0  0  0  0  0  0  0  0  0  0
   -1.6314    3.8783    1.1035 H   0  0  0  0  0  0  0  0  0  0  0  0
   -0.5312    3.0938    2.3015 H   0  0  0  0  0  0  0  0  0  0  0  0
  1  3  1  0  0  0  0
  1  2  2  0  0  0  0
  3 11  2  0  0  0  0
  4  7  2  0  0  0  0
  4  3  1  0  0  0  0
  5  6  1  0  0  0  0
  5 24  1  0  0  0  0
  5  4  1  0  0  0  0
  6  1  1  0  0  0  0
  7  9  1  0  0  0  0
  8 28  1  0  0  0  0
  8  7  1  0  0  0  0
  9 22  1  0  0  0  0
  9 10  2  0  0  0  0
 10 13  1  0  0  0  0
 11 10  1  0  0  0  0
 11 12  1  0  0  0  0
 12 29  1  0  0  0  0
 13 31  1  0  0  0  0
 13 30  1  0  0  0  0
 14 32  1  0  0  0  0
 14 13  1  0  0  0  0
 15 14  2  0  0  0  0
 16 34  1  0  0  0  0
 16 15  1  0  0  0  0
 16 17  1  0  0  0  0
 17 36  1  0  0  0  0
 18 17  1  0  0  0  0
 18 20  1  0  0  0  0
 19 18  2  0  0  0  0
 20 37  1  0  0  0  0
 21 38  1  0  0  0  0
 21 15  1  0  0  0  0
 22 23  1  0  0  0  0
 23 43  1  0  0  0  0
 25  5  1  0  0  0  0
 26  8  1  0  0  0  0
 27  8  1  0  0  0  0
 33 16  1  0  0  0  0
 35 17  1  0  0  0  0
 39 21  1  0  0  0  0
 40 21  1  0  0  0  0
 41 23  1  0  0  0  0
 42 23  1  0  0  0  0
M  END
