astex_1meh_20.log
 OpenBabel10161801213D
Gaussian 16 # PM6 Opt
 43 44  0  0  0  0  0  0  0  0999 V2000
   -3.7315   -1.8900   -0.2148 C   0  0  0  0  0  0  0  0  0  0  0  0
   -3.8827   -3.0507    0.0324 O   0  0  0  0  0  0  0  0  0  0  0  0
   -2.7058   -0.8712    0.0836 C   0  0  0  0  0  0  0  0  0  0  0  0
   -3.0987    0.3640   -0.4946 C   0  0  0  0  0  0  0  0  0  0  0  0
   -4.4134    0.1558   -1.1964 C   0  0  0  0  0  0  0  0  0  0  0  0
   -4.7438   -1.2512   -0.9791 O   0  0  0  0  0  0  0  0  0  0  0  0
   -2.3344    1.5114   -0.3869 C   0  0  0  0  0  0  0  0  0  0  0  0
   -2.7293    2.7910   -1.0384 C   0  0  0  0  0  0  0  0  0  0  0  0
   -1.1253    1.3918    0.3579 C   0  0  0  0  0  0  0  0  0  0  0  0
   -0.6883    0.1999    0.9420 C   0  0  0  0  0  0  0  0  0  0  0  0
   -1.5019   -0.9601    0.7816 C   0  0  0  0  0  0  0  0  0  0  0  0
   -1.1788   -2.1719    1.2983 O   0  0  0  0  0  0  0  0  0  0  0  0
    0.6059    0.1458    1.7071 C   0  0  0  0  0  0  0  0  0  0  0  0
    1.6113   -0.7963    1.1110 C   0  0  0  0  0  0  0  0  0  0  0  0
    2.1979   -0.6298   -0.0863 C   0  0  0  0  0  0  0  0  0  0  0  0
    3.2069   -1.6416   -0.5855 C   0  0  0  0  0  0  0  0  0  0  0  0
    4.6006   -1.3932   -0.0009 C   0  0  0  0  0  0  0  0  0  0  0  0
    5.2756   -0.2153   -0.6379 C   0  0  0  0  0  0  0  0  0  0  0  0
    5.0854    0.3418   -1.6921 O   0  0  0  0  0  0  0  0  0  0  0  0
    6.2881    0.2285    0.1890 O   0  0  0  0  0  0  0  0  0  0  0  0
    1.9192    0.5042   -1.0105 C   0  0  0  0  0  0  0  0  0  0  0  0
   -0.2705    2.4926    0.4373 O   0  0  0  0  0  0  0  0  0  0  0  0
   -0.6558    3.4768    1.4328 C   0  0  0  0  0  0  0  0  0  0  0  0
   -4.3649    0.2903   -2.2910 H   0  0  0  0  0  0  0  0  0  0  0  0
   -5.2494    0.7337   -0.7663 H   0  0  0  0  0  0  0  0  0  0  0  0
   -3.1258    2.6271   -2.0506 H   0  0  0  0  0  0  0  0  0  0  0  0
   -3.5029    3.3170   -0.4622 H   0  0  0  0  0  0  0  0  0  0  0  0
   -1.8684    3.4708   -1.1470 H   0  0  0  0  0  0  0  0  0  0  0  0
   -0.2662   -2.1857    1.7041 H   0  0  0  0  0  0  0  0  0  0  0  0
    0.3991   -0.1215    2.7651 H   0  0  0  0  0  0  0  0  0  0  0  0
    1.0534    1.1699    1.7493 H   0  0  0  0  0  0  0  0  0  0  0  0
    1.8745   -1.6414    1.7446 H   0  0  0  0  0  0  0  0  0  0  0  0
    3.2555   -1.6202   -1.6974 H   0  0  0  0  0  0  0  0  0  0  0  0
    2.8800   -2.6711   -0.3307 H   0  0  0  0  0  0  0  0  0  0  0  0
    4.5474   -1.2457    1.1024 H   0  0  0  0  0  0  0  0  0  0  0  0
    5.2453   -2.2900   -0.1420 H   0  0  0  0  0  0  0  0  0  0  0  0
    6.7833    1.0026   -0.1885 H   0  0  0  0  0  0  0  0  0  0  0  0
    1.5442    1.4000   -0.4878 H   0  0  0  0  0  0  0  0  0  0  0  0
    1.1489    0.2310   -1.7468 H   0  0  0  0  0  0  0  0  0  0  0  0
    2.8136    0.8107   -1.5781 H   0  0  0  0  0  0  0  0  0  0  0  0
    0.1017    4.2568    1.2871 H   0  0  0  0  0  0  0  0  0  0  0  0
   -1.6610    3.8583    1.2349 H   0  0  0  0  0  0  0  0  0  0  0  0
   -0.5869    3.0364    2.4317 H   0  0  0  0  0  0  0  0  0  0  0  0
  1  2  2  0  0  0  0
  1  3  1  0  0  0  0
  3 11  2  0  0  0  0
  4  7  2  0  0  0  0
  4  3  1  0  0  0  0
  5  6  1  0  0  0  0
  5 25  1  0  0  0  0
  5  4  1  0  0  0  0
  6  1  1  0  0  0  0
  7  9  1  0  0  0  0
  8 27  1  0  0  0  0
  8  7  1  0  0  0  0
  9 22  1  0  0  0  0
  9 10  2  0  0  0  0
 10 13  1  0  0  0  0
 11 10  1  0  0  0  0
 11 12  1  0  0  0  0
 12 29  1  0  0  0  0
 13 31  1  0  0  0  0
 13 30  1  0  0  0  0
 14 13  1  0  0  0  0
 14 32  1  0  0  0  0
 15 14  2  0  0  0  0
 16 34  1  0  0  0  0
 16 15  1  0  0  0  0
 16 17  1  0  0  0  0
 17 35  1  0  0  0  0
 18 17  1  0  0  0  0
 18 20  1  0  0  0  0
 19 18  2  0  0  0  0
 21 38  1  0  0  0  0
 21 15  1  0  0  0  0
 22 23  1  0  0  0  0
 23 43  1  0  0  0  0
 24  5  1  0  0  0  0
 26  8  1  0  0  0  0
 28  8  1  0  0  0  0
 33 16  1  0  0  0  0
 36 17  1  0  0  0  0
 37 20  1  0  0  0  0
 39 21  1  0  0  0  0
 40 21  1  0  0  0  0
 41 23  1  0  0  0  0
 42 23  1  0  0  0  0
M  END
