astex_1of1_02.log
 OpenBabel10161801213D
Gaussian 16 # PM6 Opt
 34 36  0  0  1  0  0  0  0  0999 V2000
    2.4170    2.2832    0.9071 O   0  0  0  0  0  0  0  0  0  0  0  0
    3.4642    1.3178    0.8086 C   0  0  0  0  0  0  0  0  0  0  0  0
    2.9478   -0.1088    0.5607 C   0  0  2  0  0  0  0  0  0  0  0  0
    2.8036   -0.4394   -0.9534 C   0  0  1  0  0  0  0  0  0  0  0  0
    3.7503   -1.5008   -1.1657 O   0  0  0  0  0  0  0  0  0  0  0  0
    1.3663   -0.9423   -1.2416 C   0  0  0  0  0  0  0  0  0  0  0  0
    0.6125   -0.8122    0.0745 C   0  0  2  0  0  0  0  0  0  0  0  0
   -0.7603   -0.3137   -0.0265 N   0  0  0  0  0  0  0  0  0  0  0  0
   -0.9616    1.0450   -0.4284 C   0  0  0  0  0  0  0  0  0  0  0  0
   -0.0407    1.7815   -0.7349 O   0  0  0  0  0  0  0  0  0  0  0  0
   -2.3054    1.4728   -0.4718 N   0  0  0  0  0  0  0  0  0  0  0  0
   -3.4542    0.6524   -0.1762 C   0  0  0  0  0  0  0  0  0  0  0  0
   -4.5407    1.1809   -0.2552 O   0  0  0  0  0  0  0  0  0  0  0  0
   -3.1314   -0.7378    0.1791 C   0  0  0  0  0  0  0  0  0  0  0  0
   -1.8454   -1.1688    0.2432 C   0  0  0  0  0  0  0  0  0  0  0  0
   -4.2834   -1.6402    0.4598 C   0  0  0  0  0  0  0  0  0  0  0  0
    1.5729   -0.3206    1.1758 C   0  0  1  0  0  0  0  0  0  0  0  0
    1.0109   -1.7319    1.2232 C   0  0  0  0  0  0  0  0  0  0  0  0
    1.7818    2.2052    0.1486 H   0  0  0  0  0  0  0  0  0  0  0  0
    3.9584    1.4003    1.7974 H   0  0  0  0  0  0  0  0  0  0  0  0
    4.1732    1.6395    0.0236 H   0  0  0  0  0  0  0  0  0  0  0  0
    3.6833   -0.8372    0.9950 H   0  0  0  0  0  0  0  0  0  0  0  0
    3.0733    0.4135   -1.6082 H   0  0  0  0  0  0  0  0  0  0  0  0
    3.8535   -1.6971   -2.1151 H   0  0  0  0  0  0  0  0  0  0  0  0
    1.3806   -1.9902   -1.5930 H   0  0  0  0  0  0  0  0  0  0  0  0
    0.8934   -0.3435   -2.0417 H   0  0  0  0  0  0  0  0  0  0  0  0
   -2.4702    2.4568   -0.7358 H   0  0  0  0  0  0  0  0  0  0  0  0
   -1.5884   -2.2040    0.5049 H   0  0  0  0  0  0  0  0  0  0  0  0
   -4.3459   -2.4598   -0.2698 H   0  0  0  0  0  0  0  0  0  0  0  0
   -5.2438   -1.0961    0.4092 H   0  0  0  0  0  0  0  0  0  0  0  0
   -4.2231   -2.0818    1.4641 H   0  0  0  0  0  0  0  0  0  0  0  0
    1.2750    0.4115    1.9322 H   0  0  0  0  0  0  0  0  0  0  0  0
    0.2995   -1.9830    2.0066 H   0  0  0  0  0  0  0  0  0  0  0  0
    1.6584   -2.5843    1.0096 H   0  0  0  0  0  0  0  0  0  0  0  0
  2  1  1  0  0  0  0
  2 20  1  0  0  0  0
  3  2  1  0  0  0  0
  3 22  1  1  0  0  0
  3 17  1  0  0  0  0
  4 23  1  6  0  0  0
  4  3  1  0  0  0  0
  5  4  1  0  0  0  0
  6  4  1  0  0  0  0
  6  7  1  0  0  0  0
  7  8  1  6  0  0  0
  7 17  1  0  0  0  0
  7 18  1  0  0  0  0
  8 15  1  0  0  0  0
  9  8  1  0  0  0  0
 10  9  2  0  0  0  0
 11  9  1  0  0  0  0
 11 12  1  0  0  0  0
 12 14  1  0  0  0  0
 13 12  2  0  0  0  0
 14 15  2  0  0  0  0
 14 16  1  0  0  0  0
 15 28  1  0  0  0  0
 16 31  1  0  0  0  0
 17 18  1  0  0  0  0
 17 32  1  1  0  0  0
 18 33  1  0  0  0  0
 19  1  1  0  0  0  0
 21  2  1  0  0  0  0
 24  5  1  0  0  0  0
 25  6  1  0  0  0  0
 26  6  1  0  0  0  0
 27 11  1  0  0  0  0
 29 16  1  0  0  0  0
 30 16  1  0  0  0  0
 34 18  1  0  0  0  0
M  END
