astex_1meh_18.log
 OpenBabel10161801213D
Gaussian 16 # PM6 Opt
 43 44  0  0  0  0  0  0  0  0999 V2000
   -3.2287   -2.3839    0.1666 C   0  0  0  0  0  0  0  0  0  0  0  0
   -2.8485   -3.5204    0.0515 O   0  0  0  0  0  0  0  0  0  0  0  0
   -2.5656   -1.0999   -0.0919 C   0  0  0  0  0  0  0  0  0  0  0  0
   -3.4682   -0.0448    0.2095 C   0  0  0  0  0  0  0  0  0  0  0  0
   -4.7568   -0.6674    0.6759 C   0  0  0  0  0  0  0  0  0  0  0  0
   -4.5273   -2.1220    0.6262 O   0  0  0  0  0  0  0  0  0  0  0  0
   -3.1125    1.2791    0.0586 C   0  0  0  0  0  0  0  0  0  0  0  0
   -4.0475    2.3999    0.3503 C   0  0  0  0  0  0  0  0  0  0  0  0
   -1.7839    1.5278   -0.4142 C   0  0  0  0  0  0  0  0  0  0  0  0
   -0.8644    0.5240   -0.7233 C   0  0  0  0  0  0  0  0  0  0  0  0
   -1.2840   -0.8288   -0.5605 C   0  0  0  0  0  0  0  0  0  0  0  0
   -0.3995   -1.8062   -0.8885 O   0  0  0  0  0  0  0  0  0  0  0  0
    0.5156    0.8291   -1.2322 C   0  0  0  0  0  0  0  0  0  0  0  0
    1.4999    0.9203   -0.1029 C   0  0  0  0  0  0  0  0  0  0  0  0
    2.4903    0.0473    0.1341 C   0  0  0  0  0  0  0  0  0  0  0  0
    3.4263    0.2596    1.3044 C   0  0  0  0  0  0  0  0  0  0  0  0
    4.7976    0.7697    0.8512 C   0  0  0  0  0  0  0  0  0  0  0  0
    5.6202   -0.2724    0.1353 C   0  0  0  0  0  0  0  0  0  0  0  0
    6.2214   -0.1406   -0.8977 O   0  0  0  0  0  0  0  0  0  0  0  0
    5.7229   -1.5069    0.7522 O   0  0  0  0  0  0  0  0  0  0  0  0
    2.7517   -1.1591   -0.7040 C   0  0  0  0  0  0  0  0  0  0  0  0
   -1.4487    2.8547   -0.6769 O   0  0  0  0  0  0  0  0  0  0  0  0
   -0.7492    3.5170    0.4086 C   0  0  0  0  0  0  0  0  0  0  0  0
   -5.6159   -0.4816    0.0085 H   0  0  0  0  0  0  0  0  0  0  0  0
   -5.0142   -0.4455    1.7254 H   0  0  0  0  0  0  0  0  0  0  0  0
   -4.1916    2.5354    1.4309 H   0  0  0  0  0  0  0  0  0  0  0  0
   -5.0355    2.2354   -0.1019 H   0  0  0  0  0  0  0  0  0  0  0  0
   -3.6702    3.3540   -0.0562 H   0  0  0  0  0  0  0  0  0  0  0  0
   -0.7970   -2.7274   -0.7494 H   0  0  0  0  0  0  0  0  0  0  0  0
    0.5045    1.7927   -1.7934 H   0  0  0  0  0  0  0  0  0  0  0  0
    0.8146    0.0581   -1.9774 H   0  0  0  0  0  0  0  0  0  0  0  0
    1.3402    1.7896    0.5425 H   0  0  0  0  0  0  0  0  0  0  0  0
    2.9932    0.9853    2.0250 H   0  0  0  0  0  0  0  0  0  0  0  0
    3.5282   -0.6859    1.8780 H   0  0  0  0  0  0  0  0  0  0  0  0
    4.6683    1.6441    0.1714 H   0  0  0  0  0  0  0  0  0  0  0  0
    5.3748    1.1585    1.7163 H   0  0  0  0  0  0  0  0  0  0  0  0
    5.2068   -1.5978    1.5863 H   0  0  0  0  0  0  0  0  0  0  0  0
    3.2253   -0.8846   -1.6597 H   0  0  0  0  0  0  0  0  0  0  0  0
    1.8132   -1.6868   -0.9504 H   0  0  0  0  0  0  0  0  0  0  0  0
    3.4120   -1.8937   -0.2264 H   0  0  0  0  0  0  0  0  0  0  0  0
   -1.3935    3.5708    1.2901 H   0  0  0  0  0  0  0  0  0  0  0  0
    0.1938    2.9949    0.6273 H   0  0  0  0  0  0  0  0  0  0  0  0
   -0.5636    4.5119   -0.0143 H   0  0  0  0  0  0  0  0  0  0  0  0
  1  6  1  0  0  0  0
  2  1  2  0  0  0  0
  3  1  1  0  0  0  0
  3  4  2  0  0  0  0
  4  5  1  0  0  0  0
  5 25  1  0  0  0  0
  6  5  1  0  0  0  0
  7  4  1  0  0  0  0
  7  8  1  0  0  0  0
  8 26  1  0  0  0  0
  9  7  2  0  0  0  0
 10 11  2  0  0  0  0
 10  9  1  0  0  0  0
 11  3  1  0  0  0  0
 12 29  1  0  0  0  0
 12 11  1  0  0  0  0
 13 10  1  0  0  0  0
 13 14  1  0  0  0  0
 14 15  2  0  0  0  0
 14 32  1  0  0  0  0
 15 16  1  0  0  0  0
 16 34  1  0  0  0  0
 16 33  1  0  0  0  0
 17 16  1  0  0  0  0
 17 36  1  0  0  0  0
 18 20  1  0  0  0  0
 18 17  1  0  0  0  0
 19 18  2  0  0  0  0
 20 37  1  0  0  0  0
 21 40  1  0  0  0  0
 21 15  1  0  0  0  0
 22  9  1  0  0  0  0
 22 23  1  0  0  0  0
 23 42  1  0  0  0  0
 23 41  1  0  0  0  0
 24  5  1  0  0  0  0
 27  8  1  0  0  0  0
 28  8  1  0  0  0  0
 30 13  1  0  0  0  0
 31 13  1  0  0  0  0
 35 17  1  0  0  0  0
 38 21  1  0  0  0  0
 39 21  1  0  0  0  0
 43 23  1  0  0  0  0
M  END
