astex_1n2j_14.log
 OpenBabel10161801213D
Gaussian 16 # PM6 Opt
 22 21  0  0  1  0  0  0  0  0999 V2000
   -2.2746    1.3831   -0.3291 O   0  0  0  0  0  0  0  0  0  0  0  0
   -1.8439    0.2765   -0.1339 C   0  0  0  0  0  0  0  0  0  0  0  0
   -2.5535   -0.5808    0.6575 O   0  0  0  0  0  0  0  0  0  0  0  0
   -0.5490   -0.3105   -0.7171 C   0  0  2  0  0  0  0  0  0  0  0  0
   -0.6133   -1.7276   -0.4666 O   0  0  0  0  0  0  0  0  0  0  0  0
    0.7163    0.2287    0.0204 C   0  0  0  0  0  0  0  0  0  0  0  0
    0.5752    0.0379    1.5313 C   0  0  0  0  0  0  0  0  0  0  0  0
    0.8809    1.7099   -0.3357 C   0  0  0  0  0  0  0  0  0  0  0  0
    1.9320   -0.5924   -0.4927 C   0  0  0  0  0  0  0  0  0  0  0  0
    3.1386   -0.2203    0.1777 O   0  0  0  0  0  0  0  0  0  0  0  0
   -2.0877   -1.4673    0.7944 H   0  0  0  0  0  0  0  0  0  0  0  0
   -0.4969   -0.1103   -1.8080 H   0  0  0  0  0  0  0  0  0  0  0  0
   -0.9228   -2.2018   -1.2690 H   0  0  0  0  0  0  0  0  0  0  0  0
    0.2716   -0.9873    1.7798 H   0  0  0  0  0  0  0  0  0  0  0  0
    1.5410    0.2058    2.0324 H   0  0  0  0  0  0  0  0  0  0  0  0
   -0.1514    0.7255    1.9772 H   0  0  0  0  0  0  0  0  0  0  0  0
    1.1173    1.8676   -1.3927 H   0  0  0  0  0  0  0  0  0  0  0  0
    1.6758    2.1756    0.2589 H   0  0  0  0  0  0  0  0  0  0  0  0
   -0.0363    2.2843   -0.1255 H   0  0  0  0  0  0  0  0  0  0  0  0
    1.8257   -1.6655   -0.2323 H   0  0  0  0  0  0  0  0  0  0  0  0
    2.0744   -0.4853   -1.5809 H   0  0  0  0  0  0  0  0  0  0  0  0
    3.3430    0.7238    0.0163 H   0  0  0  0  0  0  0  0  0  0  0  0
  1  2  2  0  0  0  0
  2  3  1  0  0  0  0
  3 11  1  0  0  0  0
  4 12  1  6  0  0  0
  4  5  1  0  0  0  0
  4  2  1  0  0  0  0
  4  6  1  0  0  0  0
  6  7  1  0  0  0  0
  7 14  1  0  0  0  0
  7 16  1  0  0  0  0
  7 15  1  0  0  0  0
  8 19  1  0  0  0  0
  8  6  1  0  0  0  0
  8 18  1  0  0  0  0
  9 20  1  0  0  0  0
  9  6  1  0  0  0  0
  9 10  1  0  0  0  0
 13  5  1  0  0  0  0
 17  8  1  0  0  0  0
 21  9  1  0  0  0  0
 22 10  1  0  0  0  0
M  END
