astex_1meh_09.log
 OpenBabel10161801213D
Gaussian 16 # PM6 Opt
 43 44  0  0  0  0  0  0  0  0999 V2000
   -3.9029   -1.5550   -0.5562 C   0  0  0  0  0  0  0  0  0  0  0  0
   -4.0762   -2.7310   -0.6938 O   0  0  0  0  0  0  0  0  0  0  0  0
   -2.7981   -0.6997   -0.0823 C   0  0  0  0  0  0  0  0  0  0  0  0
   -3.1995    0.6606   -0.1606 C   0  0  0  0  0  0  0  0  0  0  0  0
   -4.6073    0.7034   -0.6896 C   0  0  0  0  0  0  0  0  0  0  0  0
   -4.9737   -0.6940   -0.9142 O   0  0  0  0  0  0  0  0  0  0  0  0
   -2.3654    1.7052    0.1935 C   0  0  0  0  0  0  0  0  0  0  0  0
   -2.7844    3.1306    0.0982 C   0  0  0  0  0  0  0  0  0  0  0  0
   -1.0704    1.3453    0.6691 C   0  0  0  0  0  0  0  0  0  0  0  0
   -0.6452    0.0215    0.8061 C   0  0  0  0  0  0  0  0  0  0  0  0
   -1.5253   -1.0171    0.3872 C   0  0  0  0  0  0  0  0  0  0  0  0
   -1.1759   -2.3292    0.4278 O   0  0  0  0  0  0  0  0  0  0  0  0
    0.6945   -0.3102    1.3978 C   0  0  0  0  0  0  0  0  0  0  0  0
    1.7115   -0.5481    0.3262 C   0  0  0  0  0  0  0  0  0  0  0  0
    2.5529   -1.5863    0.2373 C   0  0  0  0  0  0  0  0  0  0  0  0
    3.5457   -1.6504   -0.9019 C   0  0  0  0  0  0  0  0  0  0  0  0
    4.8046   -0.8264   -0.6121 C   0  0  0  0  0  0  0  0  0  0  0  0
    4.5834    0.6494   -0.7561 C   0  0  0  0  0  0  0  0  0  0  0  0
    3.6147    1.2971   -1.0802 O   0  0  0  0  0  0  0  0  0  0  0  0
    5.7557    1.3077   -0.4477 O   0  0  0  0  0  0  0  0  0  0  0  0
    2.5987   -2.7297    1.1980 C   0  0  0  0  0  0  0  0  0  0  0  0
   -0.2416    2.3770    1.1026 O   0  0  0  0  0  0  0  0  0  0  0  0
    0.7555    2.7843    0.1244 C   0  0  0  0  0  0  0  0  0  0  0  0
   -5.3448    1.0992    0.0300 H   0  0  0  0  0  0  0  0  0  0  0  0
   -4.7056    1.2039   -1.6681 H   0  0  0  0  0  0  0  0  0  0  0  0
   -2.9102    3.4460   -0.9465 H   0  0  0  0  0  0  0  0  0  0  0  0
   -3.7346    3.3096    0.6206 H   0  0  0  0  0  0  0  0  0  0  0  0
   -2.0383    3.8004    0.5586 H   0  0  0  0  0  0  0  0  0  0  0  0
   -0.2129   -2.4566    0.6686 H   0  0  0  0  0  0  0  0  0  0  0  0
    1.0366    0.5422    2.0373 H   0  0  0  0  0  0  0  0  0  0  0  0
    0.6063   -1.1684    2.0987 H   0  0  0  0  0  0  0  0  0  0  0  0
    1.7449    0.2595   -0.4240 H   0  0  0  0  0  0  0  0  0  0  0  0
    3.0699   -1.2967   -1.8433 H   0  0  0  0  0  0  0  0  0  0  0  0
    3.8388   -2.7016   -1.1029 H   0  0  0  0  0  0  0  0  0  0  0  0
    5.6338   -1.1341   -1.2893 H   0  0  0  0  0  0  0  0  0  0  0  0
    5.1842   -1.0393    0.4143 H   0  0  0  0  0  0  0  0  0  0  0  0
    5.6802    2.2951   -0.5288 H   0  0  0  0  0  0  0  0  0  0  0  0
    2.2668   -3.6643    0.7231 H   0  0  0  0  0  0  0  0  0  0  0  0
    3.6202   -2.9034    1.5657 H   0  0  0  0  0  0  0  0  0  0  0  0
    1.9707   -2.5682    2.0853 H   0  0  0  0  0  0  0  0  0  0  0  0
    1.3325    3.5286    0.6843 H   0  0  0  0  0  0  0  0  0  0  0  0
    0.2578    3.2299   -0.7407 H   0  0  0  0  0  0  0  0  0  0  0  0
    1.3900    1.9344   -0.1728 H   0  0  0  0  0  0  0  0  0  0  0  0
  1  3  1  0  0  0  0
  2  1  2  0  0  0  0
  3 11  1  0  0  0  0
  4  3  2  0  0  0  0
  4  7  1  0  0  0  0
  5  4  1  0  0  0  0
  5 24  1  0  0  0  0
  6  5  1  0  0  0  0
  6  1  1  0  0  0  0
  7  9  2  0  0  0  0
  8  7  1  0  0  0  0
  8 28  1  0  0  0  0
  8 27  1  0  0  0  0
  9 10  1  0  0  0  0
  9 22  1  0  0  0  0
 10 13  1  0  0  0  0
 11 12  1  0  0  0  0
 11 10  2  0  0  0  0
 12 29  1  0  0  0  0
 13 30  1  0  0  0  0
 13 31  1  0  0  0  0
 14 13  1  0  0  0  0
 15 14  2  0  0  0  0
 15 21  1  0  0  0  0
 16 17  1  0  0  0  0
 16 15  1  0  0  0  0
 17 36  1  0  0  0  0
 18 17  1  0  0  0  0
 18 20  1  0  0  0  0
 19 18  2  0  0  0  0
 21 39  1  0  0  0  0
 21 40  1  0  0  0  0
 23 41  1  0  0  0  0
 23 22  1  0  0  0  0
 25  5  1  0  0  0  0
 26  8  1  0  0  0  0
 32 14  1  0  0  0  0
 33 16  1  0  0  0  0
 34 16  1  0  0  0  0
 35 17  1  0  0  0  0
 37 20  1  0  0  0  0
 38 21  1  0  0  0  0
 42 23  1  0  0  0  0
 43 23  1  0  0  0  0
M  END
