astex_1of1_09.log
 OpenBabel10161801213D
Gaussian 16 # PM6 Opt
 34 36  0  0  1  0  0  0  0  0999 V2000
   -2.4166    2.2832   -0.9070 O   0  0  0  0  0  0  0  0  0  0  0  0
   -3.4640    1.3179   -0.8086 C   0  0  0  0  0  0  0  0  0  0  0  0
   -2.9477   -0.1087   -0.5608 C   0  0  2  0  0  0  0  0  0  0  0  0
   -2.8035   -0.4394    0.9533 C   0  0  1  0  0  0  0  0  0  0  0  0
   -3.7506   -1.5004    1.1657 O   0  0  0  0  0  0  0  0  0  0  0  0
   -1.3664   -0.9430    1.2413 C   0  0  0  0  0  0  0  0  0  0  0  0
   -0.6125   -0.8125   -0.0746 C   0  0  2  0  0  0  0  0  0  0  0  0
    0.7603   -0.3140    0.0267 N   0  0  0  0  0  0  0  0  0  0  0  0
    0.9615    1.0448    0.4288 C   0  0  0  0  0  0  0  0  0  0  0  0
    0.0405    1.7811    0.7355 O   0  0  0  0  0  0  0  0  0  0  0  0
    2.3052    1.4727    0.4721 N   0  0  0  0  0  0  0  0  0  0  0  0
    3.4540    0.6526    0.1761 C   0  0  0  0  0  0  0  0  0  0  0  0
    4.5405    1.1813    0.2545 O   0  0  0  0  0  0  0  0  0  0  0  0
    3.1315   -0.7377   -0.1790 C   0  0  0  0  0  0  0  0  0  0  0  0
    1.8454   -1.1689   -0.2432 C   0  0  0  0  0  0  0  0  0  0  0  0
    4.2835   -1.6402   -0.4593 C   0  0  0  0  0  0  0  0  0  0  0  0
   -1.5727   -0.3205   -1.1758 C   0  0  1  0  0  0  0  0  0  0  0  0
   -1.0108   -1.7317   -1.2236 C   0  0  0  0  0  0  0  0  0  0  0  0
   -1.7817    2.2054   -0.1483 H   0  0  0  0  0  0  0  0  0  0  0  0
   -4.1730    1.6396   -0.0236 H   0  0  0  0  0  0  0  0  0  0  0  0
   -3.9582    1.4006   -1.7974 H   0  0  0  0  0  0  0  0  0  0  0  0
   -3.6831   -0.8370   -0.9952 H   0  0  0  0  0  0  0  0  0  0  0  0
   -3.0728    0.4136    1.6081 H   0  0  0  0  0  0  0  0  0  0  0  0
   -3.8547   -1.6959    2.1151 H   0  0  0  0  0  0  0  0  0  0  0  0
   -0.8934   -0.3449    2.0419 H   0  0  0  0  0  0  0  0  0  0  0  0
   -1.3812   -1.9912    1.5921 H   0  0  0  0  0  0  0  0  0  0  0  0
    2.4699    2.4567    0.7362 H   0  0  0  0  0  0  0  0  0  0  0  0
    1.5886   -2.2041   -0.5049 H   0  0  0  0  0  0  0  0  0  0  0  0
    4.3493   -2.4560    0.2743 H   0  0  0  0  0  0  0  0  0  0  0  0
    5.2435   -1.0947   -0.4143 H   0  0  0  0  0  0  0  0  0  0  0  0
    4.2206   -2.0869   -1.4611 H   0  0  0  0  0  0  0  0  0  0  0  0
   -1.2747    0.4119   -1.9321 H   0  0  0  0  0  0  0  0  0  0  0  0
   -0.2993   -1.9826   -2.0071 H   0  0  0  0  0  0  0  0  0  0  0  0
   -1.6583   -2.5842   -1.0105 H   0  0  0  0  0  0  0  0  0  0  0  0
  1  2  1  0  0  0  0
  1 19  1  0  0  0  0
  2  3  1  0  0  0  0
  2 20  1  0  0  0  0
  3 22  1  6  0  0  0
  3  4  1  0  0  0  0
  4  5  1  0  0  0  0
  4  6  1  0  0  0  0
  4 23  1  1  0  0  0
  5 24  1  0  0  0  0
  6 26  1  0  0  0  0
  6 25  1  0  0  0  0
  7  8  1  1  0  0  0
  7  6  1  0  0  0  0
  8  9  1  0  0  0  0
  9 11  1  0  0  0  0
  9 10  2  0  0  0  0
 11 27  1  0  0  0  0
 12 13  2  0  0  0  0
 12 11  1  0  0  0  0
 14 12  1  0  0  0  0
 15 14  2  0  0  0  0
 15  8  1  0  0  0  0
 16 30  1  0  0  0  0
 16 14  1  0  0  0  0
 16 29  1  0  0  0  0
 17 32  1  6  0  0  0
 17  3  1  0  0  0  0
 17  7  1  0  0  0  0
 18 17  1  0  0  0  0
 18 34  1  0  0  0  0
 18  7  1  0  0  0  0
 21  2  1  0  0  0  0
 28 15  1  0  0  0  0
 31 16  1  0  0  0  0
 33 18  1  0  0  0  0
M  END
