astex_1meh_06.log
 OpenBabel10161801213D
Gaussian 16 # PM6 Opt
 43 44  0  0  0  0  0  0  0  0999 V2000
   -3.4927   -1.7857    0.0279 C   0  0  0  0  0  0  0  0  0  0  0  0
   -3.7401   -2.7811    0.6584 O   0  0  0  0  0  0  0  0  0  0  0  0
   -2.4858   -0.7343    0.2133 C   0  0  0  0  0  0  0  0  0  0  0  0
   -2.6263    0.2291   -0.8225 C   0  0  0  0  0  0  0  0  0  0  0  0
   -3.7563   -0.2200   -1.7100 C   0  0  0  0  0  0  0  0  0  0  0  0
   -4.2466   -1.4745   -1.1131 O   0  0  0  0  0  0  0  0  0  0  0  0
   -1.8113    1.3386   -0.8983 C   0  0  0  0  0  0  0  0  0  0  0  0
   -1.9246    2.3387   -1.9954 C   0  0  0  0  0  0  0  0  0  0  0  0
   -0.8168    1.4645    0.1253 C   0  0  0  0  0  0  0  0  0  0  0  0
   -0.6300    0.5357    1.1491 C   0  0  0  0  0  0  0  0  0  0  0  0
   -1.4980   -0.5967    1.1826 C   0  0  0  0  0  0  0  0  0  0  0  0
   -1.3217   -1.4880    2.1907 O   0  0  0  0  0  0  0  0  0  0  0  0
    0.4634    0.6733    2.1706 C   0  0  0  0  0  0  0  0  0  0  0  0
    1.5734   -0.2963    1.8807 C   0  0  0  0  0  0  0  0  0  0  0  0
    2.7104    0.0063    1.2362 C   0  0  0  0  0  0  0  0  0  0  0  0
    3.7619   -1.0583    1.0120 C   0  0  0  0  0  0  0  0  0  0  0  0
    3.5022   -1.8465   -0.2766 C   0  0  0  0  0  0  0  0  0  0  0  0
    3.9302   -1.0881   -1.4960 C   0  0  0  0  0  0  0  0  0  0  0  0
    4.6969   -0.1652   -1.6376 O   0  0  0  0  0  0  0  0  0  0  0  0
    3.3078   -1.6221   -2.6072 O   0  0  0  0  0  0  0  0  0  0  0  0
    3.0399    1.3631    0.7097 C   0  0  0  0  0  0  0  0  0  0  0  0
    0.0781    2.5315    0.0490 O   0  0  0  0  0  0  0  0  0  0  0  0
   -0.4343    3.7746    0.5980 C   0  0  0  0  0  0  0  0  0  0  0  0
   -4.6243    0.4606   -1.7184 H   0  0  0  0  0  0  0  0  0  0  0  0
   -3.4474   -0.4832   -2.7363 H   0  0  0  0  0  0  0  0  0  0  0  0
   -1.0029    2.9374   -2.0899 H   0  0  0  0  0  0  0  0  0  0  0  0
   -2.0851    1.8584   -2.9709 H   0  0  0  0  0  0  0  0  0  0  0  0
   -2.7585    3.0336   -1.8262 H   0  0  0  0  0  0  0  0  0  0  0  0
   -1.9906   -2.2457    2.1372 H   0  0  0  0  0  0  0  0  0  0  0  0
    0.8400    1.7189    2.1920 H   0  0  0  0  0  0  0  0  0  0  0  0
    0.0529    0.4725    3.1858 H   0  0  0  0  0  0  0  0  0  0  0  0
    1.3709   -1.3086    2.2324 H   0  0  0  0  0  0  0  0  0  0  0  0
    3.7891   -1.7616    1.8697 H   0  0  0  0  0  0  0  0  0  0  0  0
    4.7735   -0.5975    0.9777 H   0  0  0  0  0  0  0  0  0  0  0  0
    2.4233   -2.1166   -0.3601 H   0  0  0  0  0  0  0  0  0  0  0  0
    4.0425   -2.8188   -0.2543 H   0  0  0  0  0  0  0  0  0  0  0  0
    3.5622   -1.1623   -3.4494 H   0  0  0  0  0  0  0  0  0  0  0  0
    3.7647    1.3276   -0.1195 H   0  0  0  0  0  0  0  0  0  0  0  0
    3.4767    1.9966    1.4923 H   0  0  0  0  0  0  0  0  0  0  0  0
    2.1450    1.8834    0.3253 H   0  0  0  0  0  0  0  0  0  0  0  0
   -0.6114    3.6600    1.6716 H   0  0  0  0  0  0  0  0  0  0  0  0
   -1.3427    4.0838    0.0746 H   0  0  0  0  0  0  0  0  0  0  0  0
    0.3938    4.4674    0.4030 H   0  0  0  0  0  0  0  0  0  0  0  0
  1  3  1  0  0  0  0
  1  2  2  0  0  0  0
  3 11  2  0  0  0  0
  4  3  1  0  0  0  0
  5  6  1  0  0  0  0
  5  4  1  0  0  0  0
  6  1  1  0  0  0  0
  7  4  2  0  0  0  0
  7  9  1  0  0  0  0
  8 28  1  0  0  0  0
  8  7  1  0  0  0  0
  9 10  2  0  0  0  0
 10 11  1  0  0  0  0
 10 13  1  0  0  0  0
 11 12  1  0  0  0  0
 13 30  1  0  0  0  0
 13 31  1  0  0  0  0
 14 13  1  0  0  0  0
 14 32  1  0  0  0  0
 15 14  2  0  0  0  0
 16 15  1  0  0  0  0
 16 33  1  0  0  0  0
 17 36  1  0  0  0  0
 17 16  1  0  0  0  0
 18 17  1  0  0  0  0
 19 18  2  0  0  0  0
 20 18  1  0  0  0  0
 21 15  1  0  0  0  0
 21 39  1  0  0  0  0
 22  9  1  0  0  0  0
 22 23  1  0  0  0  0
 23 41  1  0  0  0  0
 24  5  1  0  0  0  0
 25  5  1  0  0  0  0
 26  8  1  0  0  0  0
 27  8  1  0  0  0  0
 29 12  1  0  0  0  0
 34 16  1  0  0  0  0
 35 17  1  0  0  0  0
 37 20  1  0  0  0  0
 38 21  1  0  0  0  0
 40 21  1  0  0  0  0
 42 23  1  0  0  0  0
 43 23  1  0  0  0  0
M  END
