astex_1meh_21.log
 OpenBabel10161801213D
Gaussian 16 # PM6 Opt
 43 44  0  0  0  0  0  0  0  0999 V2000
    3.1035   -2.3025   -0.2910 C   0  0  0  0  0  0  0  0  0  0  0  0
    3.0146   -3.4018    0.1923 O   0  0  0  0  0  0  0  0  0  0  0  0
    2.4054   -1.0457    0.0064 C   0  0  0  0  0  0  0  0  0  0  0  0
    2.8883   -0.0308   -0.8626 C   0  0  0  0  0  0  0  0  0  0  0  0
    3.9281   -0.6545   -1.7549 C   0  0  0  0  0  0  0  0  0  0  0  0
    4.0078   -2.0648   -1.3350 O   0  0  0  0  0  0  0  0  0  0  0  0
    2.4093    1.2619   -0.8078 C   0  0  0  0  0  0  0  0  0  0  0  0
    2.8767    2.3246   -1.7395 C   0  0  0  0  0  0  0  0  0  0  0  0
    1.4032    1.5226    0.1773 C   0  0  0  0  0  0  0  0  0  0  0  0
    0.8894    0.5521    1.0412 C   0  0  0  0  0  0  0  0  0  0  0  0
    1.4116   -0.7691    0.9391 C   0  0  0  0  0  0  0  0  0  0  0  0
    0.9158   -1.7085    1.7880 O   0  0  0  0  0  0  0  0  0  0  0  0
   -0.2058    0.8590    2.0229 C   0  0  0  0  0  0  0  0  0  0  0  0
   -1.5309    0.9179    1.3185 C   0  0  0  0  0  0  0  0  0  0  0  0
   -2.4683   -0.0401    1.3493 C   0  0  0  0  0  0  0  0  0  0  0  0
   -3.7710    0.1464    0.6042 C   0  0  0  0  0  0  0  0  0  0  0  0
   -3.6376   -0.3619   -0.8367 C   0  0  0  0  0  0  0  0  0  0  0  0
   -4.9453   -0.2646   -1.5771 C   0  0  0  0  0  0  0  0  0  0  0  0
   -5.2344    0.4880   -2.4688 O   0  0  0  0  0  0  0  0  0  0  0  0
   -5.9290   -1.1581   -1.1876 O   0  0  0  0  0  0  0  0  0  0  0  0
   -2.3303   -1.3272    2.0954 C   0  0  0  0  0  0  0  0  0  0  0  0
    0.8232    2.7873    0.2234 O   0  0  0  0  0  0  0  0  0  0  0  0
    1.6062    3.7791    0.9387 C   0  0  0  0  0  0  0  0  0  0  0  0
    3.6512   -0.6808   -2.8230 H   0  0  0  0  0  0  0  0  0  0  0  0
    4.9452   -0.2492   -1.6183 H   0  0  0  0  0  0  0  0  0  0  0  0
    2.1522    3.1544   -1.7994 H   0  0  0  0  0  0  0  0  0  0  0  0
    2.9994    1.9458   -2.7641 H   0  0  0  0  0  0  0  0  0  0  0  0
    3.8417    2.7453   -1.4245 H   0  0  0  0  0  0  0  0  0  0  0  0
    1.3668   -2.6048    1.6516 H   0  0  0  0  0  0  0  0  0  0  0  0
   -0.2081    0.1051    2.8412 H   0  0  0  0  0  0  0  0  0  0  0  0
   -0.0106    1.8375    2.5150 H   0  0  0  0  0  0  0  0  0  0  0  0
   -1.6720    1.8333    0.7385 H   0  0  0  0  0  0  0  0  0  0  0  0
   -4.5946   -0.3747    1.1320 H   0  0  0  0  0  0  0  0  0  0  0  0
   -4.0649    1.2185    0.5968 H   0  0  0  0  0  0  0  0  0  0  0  0
   -3.2478   -1.4002   -0.8545 H   0  0  0  0  0  0  0  0  0  0  0  0
   -2.8684    0.2399   -1.3748 H   0  0  0  0  0  0  0  0  0  0  0  0
   -5.6789   -1.7625   -0.4559 H   0  0  0  0  0  0  0  0  0  0  0  0
   -1.2756   -1.6459    2.1710 H   0  0  0  0  0  0  0  0  0  0  0  0
   -2.7120   -1.2301    3.1213 H   0  0  0  0  0  0  0  0  0  0  0  0
   -2.8732   -2.1511    1.6184 H   0  0  0  0  0  0  0  0  0  0  0  0
    0.9953    4.6820    0.8119 H   0  0  0  0  0  0  0  0  0  0  0  0
    2.5926    3.8996    0.4840 H   0  0  0  0  0  0  0  0  0  0  0  0
    1.6832    3.4985    1.9932 H   0  0  0  0  0  0  0  0  0  0  0  0
  1  3  1  0  0  0  0
  1  2  2  0  0  0  0
  3 11  2  0  0  0  0
  4  7  2  0  0  0  0
  4  3  1  0  0  0  0
  5 25  1  0  0  0  0
  5  6  1  0  0  0  0
  5  4  1  0  0  0  0
  6  1  1  0  0  0  0
  7  9  1  0  0  0  0
  8 28  1  0  0  0  0
  8  7  1  0  0  0  0
  9 22  1  0  0  0  0
  9 10  2  0  0  0  0
 10 13  1  0  0  0  0
 11 10  1  0  0  0  0
 11 12  1  0  0  0  0
 13 31  1  0  0  0  0
 13 30  1  0  0  0  0
 14 15  2  0  0  0  0
 14 13  1  0  0  0  0
 15 21  1  0  0  0  0
 16 33  1  0  0  0  0
 16 15  1  0  0  0  0
 17 16  1  0  0  0  0
 18 20  1  0  0  0  0
 18 17  1  0  0  0  0
 19 18  2  0  0  0  0
 20 37  1  0  0  0  0
 21 38  1  0  0  0  0
 21 39  1  0  0  0  0
 22 23  1  0  0  0  0
 23 43  1  0  0  0  0
 24  5  1  0  0  0  0
 26  8  1  0  0  0  0
 27  8  1  0  0  0  0
 29 12  1  0  0  0  0
 32 14  1  0  0  0  0
 34 16  1  0  0  0  0
 35 17  1  0  0  0  0
 36 17  1  0  0  0  0
 40 21  1  0  0  0  0
 41 23  1  0  0  0  0
 42 23  1  0  0  0  0
M  END
