astex_1meh_14.log
 OpenBabel10161801213D
Gaussian 16 # PM6 Opt
 43 44  0  0  0  0  0  0  0  0999 V2000
    1.5617    2.7552    0.0352 C   0  0  0  0  0  0  0  0  0  0  0  0
    0.7287    3.6149    0.0646 O   0  0  0  0  0  0  0  0  0  0  0  0
    1.5434    1.2901   -0.1402 C   0  0  0  0  0  0  0  0  0  0  0  0
    2.8649    0.7903   -0.0015 C   0  0  0  0  0  0  0  0  0  0  0  0
    3.7831    1.9608    0.2252 C   0  0  0  0  0  0  0  0  0  0  0  0
    2.9096    3.1351    0.2465 O   0  0  0  0  0  0  0  0  0  0  0  0
    3.1594   -0.5585   -0.0805 C   0  0  0  0  0  0  0  0  0  0  0  0
    4.5546   -1.0713    0.0047 C   0  0  0  0  0  0  0  0  0  0  0  0
    2.0501   -1.4335   -0.2747 C   0  0  0  0  0  0  0  0  0  0  0  0
    0.7346   -0.9897   -0.4370 C   0  0  0  0  0  0  0  0  0  0  0  0
    0.4939    0.4148   -0.4098 C   0  0  0  0  0  0  0  0  0  0  0  0
   -0.7293    0.9704   -0.6128 O   0  0  0  0  0  0  0  0  0  0  0  0
   -0.3974   -1.9658   -0.5991 C   0  0  0  0  0  0  0  0  0  0  0  0
   -1.4732   -1.6865    0.4074 C   0  0  0  0  0  0  0  0  0  0  0  0
   -2.7807   -1.5583    0.1344 C   0  0  0  0  0  0  0  0  0  0  0  0
   -3.7365   -1.1019    1.2134 C   0  0  0  0  0  0  0  0  0  0  0  0
   -3.6277    0.4181    1.4247 C   0  0  0  0  0  0  0  0  0  0  0  0
   -3.9877    1.1369    0.1462 C   0  0  0  0  0  0  0  0  0  0  0  0
   -5.0261    1.0544   -0.4607 O   0  0  0  0  0  0  0  0  0  0  0  0
   -3.0123    1.9214   -0.4207 O   0  0  0  0  0  0  0  0  0  0  0  0
   -3.3890   -1.7929   -1.2073 C   0  0  0  0  0  0  0  0  0  0  0  0
    2.2764   -2.8022   -0.4039 O   0  0  0  0  0  0  0  0  0  0  0  0
    2.4928   -3.4947    0.8542 C   0  0  0  0  0  0  0  0  0  0  0  0
    4.2966    1.9509    1.2018 H   0  0  0  0  0  0  0  0  0  0  0  0
    4.5018    2.1322   -0.5954 H   0  0  0  0  0  0  0  0  0  0  0  0
    5.2522   -0.4494   -0.5748 H   0  0  0  0  0  0  0  0  0  0  0  0
    4.9169   -1.0952    1.0416 H   0  0  0  0  0  0  0  0  0  0  0  0
    4.6350   -2.0921   -0.4047 H   0  0  0  0  0  0  0  0  0  0  0  0
   -1.4176    0.3187   -0.9486 H   0  0  0  0  0  0  0  0  0  0  0  0
   -0.7805   -1.9339   -1.6443 H   0  0  0  0  0  0  0  0  0  0  0  0
   -0.0235   -3.0104   -0.4760 H   0  0  0  0  0  0  0  0  0  0  0  0
   -1.1000   -1.5494    1.4241 H   0  0  0  0  0  0  0  0  0  0  0  0
   -3.5320   -1.6242    2.1698 H   0  0  0  0  0  0  0  0  0  0  0  0
   -4.7844   -1.3656    0.9511 H   0  0  0  0  0  0  0  0  0  0  0  0
   -4.3272    0.7373    2.2278 H   0  0  0  0  0  0  0  0  0  0  0  0
   -2.6144    0.6882    1.7818 H   0  0  0  0  0  0  0  0  0  0  0  0
   -2.1973    2.1036    0.1235 H   0  0  0  0  0  0  0  0  0  0  0  0
   -3.9787   -2.7225   -1.2102 H   0  0  0  0  0  0  0  0  0  0  0  0
   -4.0835   -0.9851   -1.4975 H   0  0  0  0  0  0  0  0  0  0  0  0
   -2.6455   -1.8880   -2.0110 H   0  0  0  0  0  0  0  0  0  0  0  0
    1.5817   -3.4511    1.4585 H   0  0  0  0  0  0  0  0  0  0  0  0
    2.6983   -4.5183    0.5163 H   0  0  0  0  0  0  0  0  0  0  0  0
    3.3478   -3.0748    1.3899 H   0  0  0  0  0  0  0  0  0  0  0  0
  1  2  2  0  0  0  0
  1  6  1  0  0  0  0
  3  4  2  0  0  0  0
  3  1  1  0  0  0  0
  4  5  1  0  0  0  0
  5  6  1  0  0  0  0
  5 24  1  0  0  0  0
  7  4  1  0  0  0  0
  7  8  1  0  0  0  0
  8 27  1  0  0  0  0
  9  7  2  0  0  0  0
 10 11  2  0  0  0  0
 10  9  1  0  0  0  0
 11  3  1  0  0  0  0
 12 11  1  0  0  0  0
 13 31  1  0  0  0  0
 13 10  1  0  0  0  0
 13 14  1  0  0  0  0
 14 32  1  0  0  0  0
 15 14  2  0  0  0  0
 15 16  1  0  0  0  0
 16 17  1  0  0  0  0
 16 33  1  0  0  0  0
 17 36  1  0  0  0  0
 17 35  1  0  0  0  0
 18 17  1  0  0  0  0
 19 18  2  0  0  0  0
 20 37  1  0  0  0  0
 20 18  1  0  0  0  0
 21 15  1  0  0  0  0
 22  9  1  0  0  0  0
 22 23  1  0  0  0  0
 23 43  1  0  0  0  0
 23 41  1  0  0  0  0
 25  5  1  0  0  0  0
 26  8  1  0  0  0  0
 28  8  1  0  0  0  0
 29 12  1  0  0  0  0
 30 13  1  0  0  0  0
 34 16  1  0  0  0  0
 38 21  1  0  0  0  0
 39 21  1  0  0  0  0
 40 21  1  0  0  0  0
 42 23  1  0  0  0  0
M  END
