astex_1n2j_15.log
 OpenBabel10161801213D
Gaussian 16 # PM6 Opt
 22 21  0  0  1  0  0  0  0  0999 V2000
    1.3245   -1.8707   -0.1134 O   0  0  0  0  0  0  0  0  0  0  0  0
    1.5888   -0.6959   -0.1516 C   0  0  0  0  0  0  0  0  0  0  0  0
    2.8437   -0.2939    0.2036 O   0  0  0  0  0  0  0  0  0  0  0  0
    0.6541    0.4466   -0.5866 C   0  0  2  0  0  0  0  0  0  0  0  0
    1.3409    1.6567   -0.2374 O   0  0  0  0  0  0  0  0  0  0  0  0
   -0.7708    0.3553    0.0292 C   0  0  0  0  0  0  0  0  0  0  0  0
   -1.5679    1.6005   -0.3730 C   0  0  0  0  0  0  0  0  0  0  0  0
   -0.6700    0.2500    1.5558 C   0  0  0  0  0  0  0  0  0  0  0  0
   -1.4700   -0.9065   -0.5518 C   0  0  0  0  0  0  0  0  0  0  0  0
   -2.8207   -0.9927   -0.0906 O   0  0  0  0  0  0  0  0  0  0  0  0
    2.9812    0.7049    0.1098 H   0  0  0  0  0  0  0  0  0  0  0  0
    0.6161    0.4842   -1.7036 H   0  0  0  0  0  0  0  0  0  0  0  0
    0.9971    2.0157    0.6177 H   0  0  0  0  0  0  0  0  0  0  0  0
   -2.6295    1.4710   -0.1071 H   0  0  0  0  0  0  0  0  0  0  0  0
   -1.2084    2.5096    0.1171 H   0  0  0  0  0  0  0  0  0  0  0  0
   -1.5389    1.7786   -1.4545 H   0  0  0  0  0  0  0  0  0  0  0  0
   -0.2096   -0.6951    1.8749 H   0  0  0  0  0  0  0  0  0  0  0  0
   -1.6636    0.3003    2.0203 H   0  0  0  0  0  0  0  0  0  0  0  0
   -0.0817    1.0659    1.9900 H   0  0  0  0  0  0  0  0  0  0  0  0
   -1.5911   -0.8392   -1.6496 H   0  0  0  0  0  0  0  0  0  0  0  0
   -0.9231   -1.8361   -0.2979 H   0  0  0  0  0  0  0  0  0  0  0  0
   -2.8404   -1.2553    0.8528 H   0  0  0  0  0  0  0  0  0  0  0  0
  2  1  2  0  0  0  0
  2  3  1  0  0  0  0
  4 12  1  6  0  0  0
  4  5  1  0  0  0  0
  4  2  1  0  0  0  0
  4  6  1  0  0  0  0
  5 13  1  0  0  0  0
  6  8  1  0  0  0  0
  7 14  1  0  0  0  0
  7  6  1  0  0  0  0
  7 15  1  0  0  0  0
  8 17  1  0  0  0  0
  8 19  1  0  0  0  0
  8 18  1  0  0  0  0
  9 21  1  0  0  0  0
  9 10  1  0  0  0  0
  9  6  1  0  0  0  0
 10 22  1  0  0  0  0
 11  3  1  0  0  0  0
 16  7  1  0  0  0  0
 20  9  1  0  0  0  0
M  END
