astex_1of1_14.log
 OpenBabel10161801213D
Gaussian 16 # PM6 Opt Geom=check
 34 36  0  0  1  0  0  0  0  0999 V2000
    1.6889    2.5371   -0.2308 O   0  0  0  0  0  0  0  0  0  0  0  0
    2.9075    2.0518    0.3563 C   0  0  0  0  0  0  0  0  0  0  0  0
    2.8986    0.5243    0.5127 C   0  0  2  0  0  0  0  0  0  0  0  0
    2.9148   -0.2035   -0.8712 C   0  0  1  0  0  0  0  0  0  0  0  0
    3.9391   -1.1938   -0.8851 O   0  0  0  0  0  0  0  0  0  0  0  0
    1.5219   -0.8332   -1.1097 C   0  0  0  0  0  0  0  0  0  0  0  0
    0.7720   -0.7087    0.2090 C   0  0  2  0  0  0  0  0  0  0  0  0
   -0.6674   -0.4878    0.1114 N   0  0  0  0  0  0  0  0  0  0  0  0
   -1.5428   -1.6173    0.0235 C   0  0  0  0  0  0  0  0  0  0  0  0
   -1.1375   -2.7618    0.0442 O   0  0  0  0  0  0  0  0  0  0  0  0
   -2.9159   -1.3004   -0.0907 N   0  0  0  0  0  0  0  0  0  0  0  0
   -3.4695    0.0302   -0.1328 C   0  0  0  0  0  0  0  0  0  0  0  0
   -4.6732    0.1178   -0.2367 O   0  0  0  0  0  0  0  0  0  0  0  0
   -2.4724    1.1085   -0.0447 C   0  0  0  0  0  0  0  0  0  0  0  0
   -1.1482    0.8373    0.0693 C   0  0  0  0  0  0  0  0  0  0  0  0
   -3.0074    2.4979   -0.0827 C   0  0  0  0  0  0  0  0  0  0  0  0
    1.6304    0.0745    1.2218 C   0  0  1  0  0  0  0  0  0  0  0  0
    1.3697   -1.4083    1.4248 C   0  0  0  0  0  0  0  0  0  0  0  0
    1.6172    2.2407   -1.1603 H   0  0  0  0  0  0  0  0  0  0  0  0
    2.9193    2.5638    1.3389 H   0  0  0  0  0  0  0  0  0  0  0  0
    3.7659    2.3990   -0.2462 H   0  0  0  0  0  0  0  0  0  0  0  0
    3.8056    0.2174    1.0884 H   0  0  0  0  0  0  0  0  0  0  0  0
    3.2304    0.4606   -1.7037 H   0  0  0  0  0  0  0  0  0  0  0  0
    3.7500   -1.9192   -0.2540 H   0  0  0  0  0  0  0  0  0  0  0  0
    1.6101   -1.8920   -1.4263 H   0  0  0  0  0  0  0  0  0  0  0  0
    0.9867   -0.3302   -1.9339 H   0  0  0  0  0  0  0  0  0  0  0  0
   -3.5699   -2.0955   -0.1502 H   0  0  0  0  0  0  0  0  0  0  0  0
   -0.3789    1.6286    0.1382 H   0  0  0  0  0  0  0  0  0  0  0  0
   -3.6228    2.6599   -0.9828 H   0  0  0  0  0  0  0  0  0  0  0  0
   -2.2194    3.2611   -0.0762 H   0  0  0  0  0  0  0  0  0  0  0  0
   -3.6644    2.6897    0.7814 H   0  0  0  0  0  0  0  0  0  0  0  0
    1.2018    0.7874    1.9280 H   0  0  0  0  0  0  0  0  0  0  0  0
    2.1534   -2.1486    1.2849 H   0  0  0  0  0  0  0  0  0  0  0  0
    0.7127   -1.7222    2.2374 H   0  0  0  0  0  0  0  0  0  0  0  0
  1  2  1  0  0  0  0
  2  3  1  0  0  0  0
  2 20  1  0  0  0  0
  3 22  1  1  0  0  0
  3 17  1  0  0  0  0
  4 23  1  6  0  0  0
  4  3  1  0  0  0  0
  5  4  1  0  0  0  0
  5 24  1  0  0  0  0
  6  4  1  0  0  0  0
  6  7  1  0  0  0  0
  7  8  1  6  0  0  0
  7 17  1  0  0  0  0
  7 18  1  0  0  0  0
  9 10  2  0  0  0  0
  9  8  1  0  0  0  0
 11  9  1  0  0  0  0
 12 11  1  0  0  0  0
 12 14  1  0  0  0  0
 13 12  2  0  0  0  0
 14 15  2  0  0  0  0
 15  8  1  0  0  0  0
 15 28  1  0  0  0  0
 16 30  1  0  0  0  0
 16 14  1  0  0  0  0
 16 31  1  0  0  0  0
 17 18  1  0  0  0  0
 17 32  1  1  0  0  0
 18 34  1  0  0  0  0
 19  1  1  0  0  0  0
 21  2  1  0  0  0  0
 25  6  1  0  0  0  0
 26  6  1  0  0  0  0
 27 11  1  0  0  0  0
 29 16  1  0  0  0  0
 33 18  1  0  0  0  0
M  END
