astex_1n2j_12.log
 OpenBabel10161801213D
Gaussian 16 # PM6 Opt
 22 21  0  0  1  0  0  0  0  0999 V2000
   -2.0194    1.5102   -0.0260 O   0  0  0  0  0  0  0  0  0  0  0  0
   -1.8404    0.3255   -0.1272 C   0  0  0  0  0  0  0  0  0  0  0  0
   -2.8794   -0.5159    0.1696 O   0  0  0  0  0  0  0  0  0  0  0  0
   -0.5636   -0.4050   -0.5757 C   0  0  2  0  0  0  0  0  0  0  0  0
   -0.7425   -1.7810   -0.2077 O   0  0  0  0  0  0  0  0  0  0  0  0
    0.7467    0.2016   -0.0016 C   0  0  0  0  0  0  0  0  0  0  0  0
    0.9373    1.6100   -0.5651 C   0  0  0  0  0  0  0  0  0  0  0  0
    0.6768    0.2329    1.5302 C   0  0  0  0  0  0  0  0  0  0  0  0
    1.9221   -0.7061   -0.4632 C   0  0  0  0  0  0  0  0  0  0  0  0
    3.1846   -0.1917   -0.0335 O   0  0  0  0  0  0  0  0  0  0  0  0
   -2.6639   -1.4894    0.0175 H   0  0  0  0  0  0  0  0  0  0  0  0
   -0.5398   -0.4434   -1.6934 H   0  0  0  0  0  0  0  0  0  0  0  0
   -0.4420   -1.9309    0.7236 H   0  0  0  0  0  0  0  0  0  0  0  0
    0.9429    1.6266   -1.6604 H   0  0  0  0  0  0  0  0  0  0  0  0
    0.1440    2.2972   -0.2323 H   0  0  0  0  0  0  0  0  0  0  0  0
    1.9010    2.0293   -0.2423 H   0  0  0  0  0  0  0  0  0  0  0  0
   -0.1024    0.9261    1.8819 H   0  0  0  0  0  0  0  0  0  0  0  0
    0.4700   -0.7506    1.9641 H   0  0  0  0  0  0  0  0  0  0  0  0
    1.6187    0.5961    1.9622 H   0  0  0  0  0  0  0  0  0  0  0  0
    1.8082   -1.7436   -0.1032 H   0  0  0  0  0  0  0  0  0  0  0  0
    2.0282   -0.7133   -1.5654 H   0  0  0  0  0  0  0  0  0  0  0  0
    3.2158   -0.1298    0.9440 H   0  0  0  0  0  0  0  0  0  0  0  0
  2  1  2  0  0  0  0
  2  3  1  0  0  0  0
  4 12  1  6  0  0  0
  4  5  1  0  0  0  0
  4  2  1  0  0  0  0
  4  6  1  0  0  0  0
  5 13  1  0  0  0  0
  6  8  1  0  0  0  0
  7 16  1  0  0  0  0
  7 15  1  0  0  0  0
  7  6  1  0  0  0  0
  8 17  1  0  0  0  0
  8 19  1  0  0  0  0
  8 18  1  0  0  0  0
  9 20  1  0  0  0  0
  9 10  1  0  0  0  0
  9  6  1  0  0  0  0
 10 22  1  0  0  0  0
 11  3  1  0  0  0  0
 14  7  1  0  0  0  0
 21  9  1  0  0  0  0
M  END
