astex_1meh_29.log
 OpenBabel10161801213D
Gaussian 16 # PM6 Opt
 43 44  0  0  0  0  0  0  0  0999 V2000
    3.1440   -2.4156   -0.2271 C   0  0  0  0  0  0  0  0  0  0  0  0
    2.8899   -3.5735   -0.0691 O   0  0  0  0  0  0  0  0  0  0  0  0
    2.4939   -1.1352    0.1195 C   0  0  0  0  0  0  0  0  0  0  0  0
    3.2942   -0.0665   -0.3592 C   0  0  0  0  0  0  0  0  0  0  0  0
    4.5083   -0.6521   -1.0279 C   0  0  0  0  0  0  0  0  0  0  0  0
    4.3446   -2.1000   -0.9156 O   0  0  0  0  0  0  0  0  0  0  0  0
    2.9397    1.2601   -0.1898 C   0  0  0  0  0  0  0  0  0  0  0  0
    3.8074    2.3774   -0.6547 C   0  0  0  0  0  0  0  0  0  0  0  0
    1.7109    1.4977    0.4893 C   0  0  0  0  0  0  0  0  0  0  0  0
    0.8936    0.4825    0.9983 C   0  0  0  0  0  0  0  0  0  0  0  0
    1.3116   -0.8672    0.8099 C   0  0  0  0  0  0  0  0  0  0  0  0
    0.6179   -1.9381    1.2674 O   0  0  0  0  0  0  0  0  0  0  0  0
   -0.3468    0.8301    1.7727 C   0  0  0  0  0  0  0  0  0  0  0  0
   -1.6074    0.1397    1.3449 C   0  0  0  0  0  0  0  0  0  0  0  0
   -2.0796    0.0527    0.0909 C   0  0  0  0  0  0  0  0  0  0  0  0
   -3.3863   -0.6578   -0.1837 C   0  0  0  0  0  0  0  0  0  0  0  0
   -4.5394    0.3506   -0.2368 C   0  0  0  0  0  0  0  0  0  0  0  0
   -5.8391   -0.3215   -0.6033 C   0  0  0  0  0  0  0  0  0  0  0  0
   -6.4347   -0.2410   -1.6441 O   0  0  0  0  0  0  0  0  0  0  0  0
   -6.4134   -1.1098    0.3760 O   0  0  0  0  0  0  0  0  0  0  0  0
   -1.3872    0.6077   -1.1080 C   0  0  0  0  0  0  0  0  0  0  0  0
    1.3290    2.8129    0.7596 O   0  0  0  0  0  0  0  0  0  0  0  0
    0.7219    3.4968   -0.3670 C   0  0  0  0  0  0  0  0  0  0  0  0
    4.5760   -0.4374   -2.1082 H   0  0  0  0  0  0  0  0  0  0  0  0
    5.4593   -0.4137   -0.5200 H   0  0  0  0  0  0  0  0  0  0  0  0
    3.7039    2.5496   -1.7349 H   0  0  0  0  0  0  0  0  0  0  0  0
    3.5638    3.3198   -0.1368 H   0  0  0  0  0  0  0  0  0  0  0  0
    4.8698    2.1788   -0.4527 H   0  0  0  0  0  0  0  0  0  0  0  0
   -0.2365   -1.6831    1.7176 H   0  0  0  0  0  0  0  0  0  0  0  0
   -0.5116    1.9369    1.7243 H   0  0  0  0  0  0  0  0  0  0  0  0
   -0.1507    0.6340    2.8518 H   0  0  0  0  0  0  0  0  0  0  0  0
   -2.1826   -0.2703    2.1771 H   0  0  0  0  0  0  0  0  0  0  0  0
   -3.5842   -1.4357    0.5810 H   0  0  0  0  0  0  0  0  0  0  0  0
   -3.3207   -1.2136   -1.1458 H   0  0  0  0  0  0  0  0  0  0  0  0
   -4.3201    1.1384   -0.9940 H   0  0  0  0  0  0  0  0  0  0  0  0
   -4.6309    0.8955    0.7247 H   0  0  0  0  0  0  0  0  0  0  0  0
   -5.9112   -1.1705    1.2170 H   0  0  0  0  0  0  0  0  0  0  0  0
   -2.0536    0.7309   -1.9711 H   0  0  0  0  0  0  0  0  0  0  0  0
   -0.9316    1.5938   -0.8991 H   0  0  0  0  0  0  0  0  0  0  0  0
   -0.5677   -0.0577   -1.4259 H   0  0  0  0  0  0  0  0  0  0  0  0
    0.4605    4.4690    0.0683 H   0  0  0  0  0  0  0  0  0  0  0  0
   -0.1763    2.9470   -0.6926 H   0  0  0  0  0  0  0  0  0  0  0  0
    1.4393    3.6070   -1.1843 H   0  0  0  0  0  0  0  0  0  0  0  0
  1  2  2  0  0  0  0
  1  3  1  0  0  0  0
  3 11  2  0  0  0  0
  4  7  2  0  0  0  0
  4  3  1  0  0  0  0
  5  6  1  0  0  0  0
  5 25  1  0  0  0  0
  5  4  1  0  0  0  0
  6  1  1  0  0  0  0
  7  9  1  0  0  0  0
  8 28  1  0  0  0  0
  8  7  1  0  0  0  0
  8 27  1  0  0  0  0
  9 22  1  0  0  0  0
  9 10  2  0  0  0  0
 10 13  1  0  0  0  0
 11 10  1  0  0  0  0
 11 12  1  0  0  0  0
 12 29  1  0  0  0  0
 13 31  1  0  0  0  0
 14 13  1  0  0  0  0
 14 32  1  0  0  0  0
 15 14  2  0  0  0  0
 16 15  1  0  0  0  0
 16 33  1  0  0  0  0
 17 16  1  0  0  0  0
 17 36  1  0  0  0  0
 18 17  1  0  0  0  0
 18 20  1  0  0  0  0
 19 18  2  0  0  0  0
 20 37  1  0  0  0  0
 21 39  1  0  0  0  0
 21 15  1  0  0  0  0
 23 41  1  0  0  0  0
 23 22  1  0  0  0  0
 24  5  1  0  0  0  0
 26  8  1  0  0  0  0
 30 13  1  0  0  0  0
 34 16  1  0  0  0  0
 35 17  1  0  0  0  0
 38 21  1  0  0  0  0
 40 21  1  0  0  0  0
 42 23  1  0  0  0  0
 43 23  1  0  0  0  0
M  END
