astex_1meh_10.log
 OpenBabel10161801213D
Gaussian 16 # PM6 Opt
 43 44  0  0  0  0  0  0  0  0999 V2000
   -0.9348    2.7750   -0.6946 C   0  0  0  0  0  0  0  0  0  0  0  0
   -0.1389    3.4667   -1.2610 O   0  0  0  0  0  0  0  0  0  0  0  0
   -1.1083    1.3164   -0.5206 C   0  0  0  0  0  0  0  0  0  0  0  0
   -2.2544    1.0817    0.2801 C   0  0  0  0  0  0  0  0  0  0  0  0
   -2.8506    2.4136    0.6456 C   0  0  0  0  0  0  0  0  0  0  0  0
   -1.9942    3.4076   -0.0042 O   0  0  0  0  0  0  0  0  0  0  0  0
   -2.6715   -0.1956    0.6141 C   0  0  0  0  0  0  0  0  0  0  0  0
   -3.8589   -0.4436    1.4770 C   0  0  0  0  0  0  0  0  0  0  0  0
   -1.8817   -1.2662    0.1085 C   0  0  0  0  0  0  0  0  0  0  0  0
   -0.7366   -1.0894   -0.6790 C   0  0  0  0  0  0  0  0  0  0  0  0
   -0.3558    0.2440   -0.9938 C   0  0  0  0  0  0  0  0  0  0  0  0
    0.7414    0.5640   -1.7411 O   0  0  0  0  0  0  0  0  0  0  0  0
    0.0575   -2.2866   -1.1308 C   0  0  0  0  0  0  0  0  0  0  0  0
    1.5444   -2.1093   -1.0387 C   0  0  0  0  0  0  0  0  0  0  0  0
    2.2093   -1.7347    0.0682 C   0  0  0  0  0  0  0  0  0  0  0  0
    3.6960   -1.4677    0.0029 C   0  0  0  0  0  0  0  0  0  0  0  0
    3.9742    0.0032   -0.3402 C   0  0  0  0  0  0  0  0  0  0  0  0
    3.5459    0.8988    0.8011 C   0  0  0  0  0  0  0  0  0  0  0  0
    4.1023    1.0249    1.8622 O   0  0  0  0  0  0  0  0  0  0  0  0
    2.3980    1.6290    0.6130 O   0  0  0  0  0  0  0  0  0  0  0  0
    1.5663   -1.4925    1.3899 C   0  0  0  0  0  0  0  0  0  0  0  0
   -2.2008   -2.5661    0.5027 O   0  0  0  0  0  0  0  0  0  0  0  0
   -3.2056   -3.2046   -0.3286 C   0  0  0  0  0  0  0  0  0  0  0  0
   -2.8111    2.6422    1.7256 H   0  0  0  0  0  0  0  0  0  0  0  0
   -3.8647    2.5810    0.2442 H   0  0  0  0  0  0  0  0  0  0  0  0
   -3.8837    0.2356    2.3414 H   0  0  0  0  0  0  0  0  0  0  0  0
   -3.8548   -1.4683    1.8849 H   0  0  0  0  0  0  0  0  0  0  0  0
   -4.7978   -0.3085    0.9223 H   0  0  0  0  0  0  0  0  0  0  0  0
    1.1883   -0.2443   -2.1284 H   0  0  0  0  0  0  0  0  0  0  0  0
   -0.2367   -2.5440   -2.1711 H   0  0  0  0  0  0  0  0  0  0  0  0
   -0.2389   -3.1740   -0.5156 H   0  0  0  0  0  0  0  0  0  0  0  0
    2.0807   -2.3354   -1.9601 H   0  0  0  0  0  0  0  0  0  0  0  0
    4.1846   -1.7247    0.9688 H   0  0  0  0  0  0  0  0  0  0  0  0
    4.1865   -2.1197   -0.7485 H   0  0  0  0  0  0  0  0  0  0  0  0
    5.0646    0.1466   -0.5099 H   0  0  0  0  0  0  0  0  0  0  0  0
    3.4843    0.2873   -1.2911 H   0  0  0  0  0  0  0  0  0  0  0  0
    1.9576    1.5357   -0.2774 H   0  0  0  0  0  0  0  0  0  0  0  0
    0.6426   -2.0754    1.5239 H   0  0  0  0  0  0  0  0  0  0  0  0
    2.2262   -1.7375    2.2337 H   0  0  0  0  0  0  0  0  0  0  0  0
    1.2885   -0.4301    1.5107 H   0  0  0  0  0  0  0  0  0  0  0  0
   -2.8247   -3.3251   -1.3466 H   0  0  0  0  0  0  0  0  0  0  0  0
   -3.3289   -4.1750    0.1686 H   0  0  0  0  0  0  0  0  0  0  0  0
   -4.1363   -2.6307   -0.3146 H   0  0  0  0  0  0  0  0  0  0  0  0
  1  3  1  0  0  0  0
  1  6  1  0  0  0  0
  2  1  2  0  0  0  0
  3  4  2  0  0  0  0
  4  7  1  0  0  0  0
  4  5  1  0  0  0  0
  5 24  1  0  0  0  0
  6  5  1  0  0  0  0
  7  8  1  0  0  0  0
  8 27  1  0  0  0  0
  8 26  1  0  0  0  0
  9 22  1  0  0  0  0
  9  7  2  0  0  0  0
 10  9  1  0  0  0  0
 11 10  2  0  0  0  0
 11  3  1  0  0  0  0
 12 11  1  0  0  0  0
 13 14  1  0  0  0  0
 13 10  1  0  0  0  0
 13 31  1  0  0  0  0
 14 15  2  0  0  0  0
 15 21  1  0  0  0  0
 16 15  1  0  0  0  0
 16 33  1  0  0  0  0
 17 16  1  0  0  0  0
 17 18  1  0  0  0  0
 18 19  2  0  0  0  0
 20 18  1  0  0  0  0
 21 40  1  0  0  0  0
 21 38  1  0  0  0  0
 21 39  1  0  0  0  0
 23 43  1  0  0  0  0
 23 42  1  0  0  0  0
 23 22  1  0  0  0  0
 25  5  1  0  0  0  0
 28  8  1  0  0  0  0
 29 12  1  0  0  0  0
 30 13  1  0  0  0  0
 32 14  1  0  0  0  0
 34 16  1  0  0  0  0
 35 17  1  0  0  0  0
 36 17  1  0  0  0  0
 37 20  1  0  0  0  0
 41 23  1  0  0  0  0
M  END
