omegacsd_FABSOQ10_03.log
 OpenBabel10161801213D
Gaussian 16 # PM6 Opt
 45 47  0  0  1  0  0  0  0  0999 V2000
    0.7359   -0.9389   -0.8479 S   0  0  0  0  0  0  0  0  0  0  0  0
    1.1989   -1.6358    0.6798 C   0  0  0  0  0  0  0  0  0  0  0  0
    0.0934   -1.9321    1.4201 C   0  0  0  0  0  0  0  0  0  0  0  0
   -1.1435   -1.5900    0.7605 C   0  0  0  0  0  0  0  0  0  0  0  0
   -0.9642   -1.0398   -0.4747 C   0  0  0  0  0  0  0  0  0  0  0  0
   -1.9650   -0.6031   -1.4928 C   0  0  1  0  0  0  0  0  0  0  0  0
   -2.2288   -1.6998   -2.3855 O   0  0  0  0  0  0  0  0  0  0  0  0
   -3.2542   -0.0807   -0.8893 C   0  0  0  0  0  0  0  0  0  0  0  0
   -4.4861   -0.4385   -1.4685 C   0  0  0  0  0  0  0  0  0  0  0  0
   -5.6787    0.0524   -0.9551 C   0  0  0  0  0  0  0  0  0  0  0  0
   -5.6291    0.9266    0.1522 C   0  0  0  0  0  0  0  0  0  0  0  0
   -6.8787    1.3348    0.5606 O   0  0  0  0  0  0  0  0  0  0  0  0
   -6.9620    2.2441    1.6843 C   0  0  0  0  0  0  0  0  0  0  0  0
   -4.4151    1.3086    0.7355 C   0  0  0  0  0  0  0  0  0  0  0  0
   -3.2289    0.7964    0.1996 C   0  0  0  0  0  0  0  0  0  0  0  0
    2.6381   -1.8818    0.9977 C   0  0  2  0  0  0  0  0  0  0  0  0
    2.7976   -2.0960    2.4104 O   0  0  0  0  0  0  0  0  0  0  0  0
    3.5488   -0.7710    0.5274 C   0  0  0  0  0  0  0  0  0  0  0  0
    3.2659    0.5679    0.8221 C   0  0  0  0  0  0  0  0  0  0  0  0
    4.1253    1.5911    0.4118 C   0  0  0  0  0  0  0  0  0  0  0  0
    5.2786    1.2453   -0.3038 C   0  0  0  0  0  0  0  0  0  0  0  0
    6.2210    2.1264   -0.7793 O   0  0  0  0  0  0  0  0  0  0  0  0
    6.0141    3.5394   -0.5373 C   0  0  0  0  0  0  0  0  0  0  0  0
    5.5874   -0.0978   -0.6107 C   0  0  0  0  0  0  0  0  0  0  0  0
    4.7178   -1.0942   -0.1877 C   0  0  0  0  0  0  0  0  0  0  0  0
    0.1192   -2.3872    2.4031 H   0  0  0  0  0  0  0  0  0  0  0  0
   -2.1059   -1.7621    1.2266 H   0  0  0  0  0  0  0  0  0  0  0  0
   -1.5486    0.1626   -2.2003 H   0  0  0  0  0  0  0  0  0  0  0  0
   -2.4687   -2.5079   -1.8826 H   0  0  0  0  0  0  0  0  0  0  0  0
   -4.4947   -1.1053   -2.3359 H   0  0  0  0  0  0  0  0  0  0  0  0
   -6.6414   -0.2139   -1.3853 H   0  0  0  0  0  0  0  0  0  0  0  0
   -6.4595    3.1865    1.4489 H   0  0  0  0  0  0  0  0  0  0  0  0
   -6.5534    1.7754    2.5839 H   0  0  0  0  0  0  0  0  0  0  0  0
   -8.0467    2.3890    1.7746 H   0  0  0  0  0  0  0  0  0  0  0  0
   -4.3780    1.9857    1.5811 H   0  0  0  0  0  0  0  0  0  0  0  0
   -2.2755    1.0885    0.6434 H   0  0  0  0  0  0  0  0  0  0  0  0
    2.9498   -2.8821    0.5916 H   0  0  0  0  0  0  0  0  0  0  0  0
    2.6989   -1.2570    2.9058 H   0  0  0  0  0  0  0  0  0  0  0  0
    2.3604    0.8253    1.3744 H   0  0  0  0  0  0  0  0  0  0  0  0
    3.8891    2.6230    0.6458 H   0  0  0  0  0  0  0  0  0  0  0  0
    5.0929    3.8771   -1.0205 H   0  0  0  0  0  0  0  0  0  0  0  0
    6.0135    3.7449    0.5368 H   0  0  0  0  0  0  0  0  0  0  0  0
    6.8960    3.9799   -1.0214 H   0  0  0  0  0  0  0  0  0  0  0  0
    6.4941   -0.3253   -1.1670 H   0  0  0  0  0  0  0  0  0  0  0  0
    4.9463   -2.1375   -0.4128 H   0  0  0  0  0  0  0  0  0  0  0  0
  1  5  1  0  0  0  0
  1  2  1  0  0  0  0
  2 16  1  0  0  0  0
  2  3  2  0  0  0  0
  3 26  1  0  0  0  0
  4 27  1  0  0  0  0
  4  3  1  0  0  0  0
  5  4  2  0  0  0  0
  6 28  1  6  0  0  0
  6  8  1  0  0  0  0
  6  5  1  0  0  0  0
  7 29  1  0  0  0  0
  7  6  1  0  0  0  0
  8 15  2  0  0  0  0
  9 10  2  0  0  0  0
  9  8  1  0  0  0  0
 10 11  1  0  0  0  0
 11 12  1  0  0  0  0
 11 14  2  0  0  0  0
 12 13  1  0  0  0  0
 13 34  1  0  0  0  0
 13 33  1  0  0  0  0
 14 35  1  0  0  0  0
 15 36  1  0  0  0  0
 15 14  1  0  0  0  0
 16 37  1  6  0  0  0
 16 17  1  0  0  0  0
 17 38  1  0  0  0  0
 18 19  1  0  0  0  0
 18 16  1  0  0  0  0
 19 39  1  0  0  0  0
 20 40  1  0  0  0  0
 20 19  2  0  0  0  0
 21 20  1  0  0  0  0
 22 23  1  0  0  0  0
 22 21  1  0  0  0  0
 23 42  1  0  0  0  0
 24 21  2  0  0  0  0
 24 25  1  0  0  0  0
 25 18  2  0  0  0  0
 30  9  1  0  0  0  0
 31 10  1  0  0  0  0
 32 13  1  0  0  0  0
 41 23  1  0  0  0  0
 43 23  1  0  0  0  0
 44 24  1  0  0  0  0
 45 25  1  0  0  0  0
M  END
