omegapdb_1z1r_15.log
 OpenBabel10161801213D
Gaussian 16 # PM6 Opt
 66 68  0  0  1  0  0  0  0  0999 V2000
    0.5767   -0.9884   -1.1309 C   0  0  2  0  0  0  0  0  0  0  0  0
    0.8133    0.3250   -1.9183 C   0  0  0  0  0  0  0  0  0  0  0  0
   -0.3301    1.2717   -1.6947 C   0  0  0  0  0  0  0  0  0  0  0  0
   -0.4346    1.9591   -0.4729 C   0  0  0  0  0  0  0  0  0  0  0  0
   -1.5961    2.6576   -0.1544 C   0  0  0  0  0  0  0  0  0  0  0  0
   -2.6419    2.6830   -1.0892 C   0  0  0  0  0  0  0  0  0  0  0  0
   -2.4970    2.1331   -2.3733 C   0  0  0  0  0  0  0  0  0  0  0  0
   -1.3353    1.4189   -2.6641 C   0  0  0  0  0  0  0  0  0  0  0  0
   -3.8680    3.2657   -0.8053 O   0  0  0  0  0  0  0  0  0  0  0  0
   -4.4852    2.8283    0.4427 C   0  0  0  0  0  0  0  0  0  0  0  0
   -5.3832    1.6153    0.1963 C   0  0  0  0  0  0  0  0  0  0  0  0
   -4.6622    0.3789   -0.3447 C   0  0  0  0  0  0  0  0  0  0  0  0
   -3.7858   -0.2938    0.6872 C   0  0  0  0  0  0  0  0  0  0  0  0
   -4.1722   -0.6305    1.7973 O   0  0  0  0  0  0  0  0  0  0  0  0
   -2.4785   -0.6062    0.2793 N   0  0  0  0  0  0  0  0  0  0  0  0
   -1.6254   -1.4536    1.1350 C   0  0  2  0  0  0  0  0  0  0  0  0
   -0.2138   -0.8605    1.3317 C   0  0  0  0  0  0  0  0  0  0  0  0
    0.1399   -0.5179    2.4531 O   0  0  0  0  0  0  0  0  0  0  0  0
    0.7348   -0.7617    0.3189 N   0  0  0  0  0  0  0  0  0  0  0  0
   -1.5409   -2.9008    0.6320 C   0  0  0  0  0  0  0  0  0  0  0  0
   -2.8863   -3.5089    0.2789 C   0  0  0  0  0  0  0  0  0  0  0  0
   -3.1051   -4.0344   -0.7998 O   0  0  0  0  0  0  0  0  0  0  0  0
   -3.8610   -3.5191    1.2765 N   0  0  0  0  0  0  0  0  0  0  0  0
    1.5407   -2.1168   -1.6157 C   0  0  2  0  0  0  0  0  0  0  0  0
    1.3073   -3.2866   -0.8312 O   0  0  0  0  0  0  0  0  0  0  0  0
    3.0483   -1.7847   -1.6825 C   0  0  0  0  0  0  0  0  0  0  0  0
    3.6205   -1.4734   -0.3509 N   0  0  0  0  0  0  0  0  0  0  0  0
    4.7416   -0.1493   -0.2456 S   0  0  0  0  0  0  0  0  0  0  0  0
    5.8702   -0.6798    0.4811 O   0  0  0  0  0  0  0  0  0  0  0  0
    4.8906    0.3826   -1.5879 O   0  0  0  0  0  0  0  0  0  0  0  0
    3.8670    0.9876    0.7124 C   0  0  0  0  0  0  0  0  0  0  0  0
    3.4609    2.1997    0.1409 C   0  0  0  0  0  0  0  0  0  0  0  0
    2.7365    3.1210    0.9005 C   0  0  0  0  0  0  0  0  0  0  0  0
    2.4191    2.8301    2.2331 C   0  0  0  0  0  0  0  0  0  0  0  0
    2.8346    1.6246    2.8079 C   0  0  0  0  0  0  0  0  0  0  0  0
    3.5671    0.7061    2.0497 C   0  0  0  0  0  0  0  0  0  0  0  0
   -0.4669   -1.3568   -1.3379 H   0  0  0  0  0  0  0  0  0  0  0  0
    0.9355    0.0976   -2.9969 H   0  0  0  0  0  0  0  0  0  0  0  0
    1.7727    0.7960   -1.6166 H   0  0  0  0  0  0  0  0  0  0  0  0
    0.3858    1.9243    0.2474 H   0  0  0  0  0  0  0  0  0  0  0  0
   -1.6979    3.1627    0.8036 H   0  0  0  0  0  0  0  0  0  0  0  0
   -3.2908    2.2562   -3.1076 H   0  0  0  0  0  0  0  0  0  0  0  0
   -1.2220    0.9570   -3.6450 H   0  0  0  0  0  0  0  0  0  0  0  0
   -5.0780    3.7231    0.7153 H   0  0  0  0  0  0  0  0  0  0  0  0
   -3.7229    2.6371    1.2158 H   0  0  0  0  0  0  0  0  0  0  0  0
   -5.9002    1.3562    1.1478 H   0  0  0  0  0  0  0  0  0  0  0  0
   -6.1814    1.8964   -0.5241 H   0  0  0  0  0  0  0  0  0  0  0  0
   -4.1178    0.6354   -1.2764 H   0  0  0  0  0  0  0  0  0  0  0  0
   -5.4232   -0.3737   -0.6619 H   0  0  0  0  0  0  0  0  0  0  0  0
   -2.1116   -0.3254   -0.6279 H   0  0  0  0  0  0  0  0  0  0  0  0
   -2.0858   -1.4555    2.1789 H   0  0  0  0  0  0  0  0  0  0  0  0
    1.6574   -0.4017    0.6039 H   0  0  0  0  0  0  0  0  0  0  0  0
   -0.8820   -2.9977   -0.2681 H   0  0  0  0  0  0  0  0  0  0  0  0
   -1.0456   -3.5373    1.3983 H   0  0  0  0  0  0  0  0  0  0  0  0
   -4.7816   -3.8685    1.0455 H   0  0  0  0  0  0  0  0  0  0  0  0
   -3.8371   -2.8736    2.0581 H   0  0  0  0  0  0  0  0  0  0  0  0
    1.2074   -2.4546   -2.6319 H   0  0  0  0  0  0  0  0  0  0  0  0
    1.6001   -3.1463    0.0985 H   0  0  0  0  0  0  0  0  0  0  0  0
    3.2123   -0.9360   -2.3925 H   0  0  0  0  0  0  0  0  0  0  0  0
    3.5642   -2.6619   -2.1442 H   0  0  0  0  0  0  0  0  0  0  0  0
    3.8972   -2.3355    0.1414 H   0  0  0  0  0  0  0  0  0  0  0  0
    3.7151    2.4296   -0.9012 H   0  0  0  0  0  0  0  0  0  0  0  0
    2.4220    4.0659    0.4575 H   0  0  0  0  0  0  0  0  0  0  0  0
    1.8465    3.5459    2.8258 H   0  0  0  0  0  0  0  0  0  0  0  0
    2.5759    1.3924    3.8425 H   0  0  0  0  0  0  0  0  0  0  0  0
    3.8999   -0.2283    2.5114 H   0  0  0  0  0  0  0  0  0  0  0  0
  1 37  1  6  0  0  0
  1 19  1  0  0  0  0
  2  3  1  0  0  0  0
  2 39  1  0  0  0  0
  2  1  1  0  0  0  0
  3  4  2  0  0  0  0
  4  5  1  0  0  0  0
  4 40  1  0  0  0  0
  5 41  1  0  0  0  0
  6  9  1  0  0  0  0
  6  5  2  0  0  0  0
  7  6  1  0  0  0  0
  8  7  2  0  0  0  0
  8  3  1  0  0  0  0
  9 10  1  0  0  0  0
 10 44  1  0  0  0  0
 10 45  1  0  0  0  0
 11 10  1  0  0  0  0
 11 46  1  0  0  0  0
 12 11  1  0  0  0  0
 12 13  1  0  0  0  0
 13 14  2  0  0  0  0
 15 13  1  0  0  0  0
 15 16  1  0  0  0  0
 16 17  1  0  0  0  0
 16 51  1  1  0  0  0
 17 18  2  0  0  0  0
 19 52  1  0  0  0  0
 19 17  1  0  0  0  0
 20 16  1  0  0  0  0
 20 54  1  0  0  0  0
 21 20  1  0  0  0  0
 21 23  1  0  0  0  0
 22 21  2  0  0  0  0
 23 56  1  0  0  0  0
 24 57  1  6  0  0  0
 24  1  1  0  0  0  0
 24 25  1  0  0  0  0
 25 58  1  0  0  0  0
 26 24  1  0  0  0  0
 26 27  1  0  0  0  0
 27 28  1  0  0  0  0
 27 61  1  0  0  0  0
 28 29  2  0  0  0  0
 28 31  1  0  0  0  0
 30 28  2  0  0  0  0
 31 36  1  0  0  0  0
 32 31  2  0  0  0  0
 32 33  1  0  0  0  0
 33 34  2  0  0  0  0
 34 35  1  0  0  0  0
 34 64  1  0  0  0  0
 35 65  1  0  0  0  0
 36 66  1  0  0  0  0
 36 35  2  0  0  0  0
 38  2  1  0  0  0  0
 42  7  1  0  0  0  0
 43  8  1  0  0  0  0
 47 11  1  0  0  0  0
 48 12  1  0  0  0  0
 49 12  1  0  0  0  0
 50 15  1  0  0  0  0
 53 20  1  0  0  0  0
 55 23  1  0  0  0  0
 59 26  1  0  0  0  0
 60 26  1  0  0  0  0
 62 32  1  0  0  0  0
 63 33  1  0  0  0  0
M  END
