omegacsd_SEYMIS_11.log
 OpenBabel10161801213D
Gaussian 16 # PM6 Opt
 45 47  0  0  0  0  0  0  0  0999 V2000
   -4.7690    2.3743   -0.2801 O   0  0  0  0  0  0  0  0  0  0  0  0
   -4.9528    0.9968   -0.1803 N   0  0  0  0  0  0  0  0  0  0  0  0
   -3.7527    0.4170   -0.0306 C   0  0  0  0  0  0  0  0  0  0  0  0
   -2.7194    1.4421   -0.0395 C   0  0  0  0  0  0  0  0  0  0  0  0
   -1.2571    1.3480    0.0987 C   0  0  0  0  0  0  0  0  0  0  0  0
   -0.5810    2.2658    0.5378 O   0  0  0  0  0  0  0  0  0  0  0  0
   -0.6842    0.1478   -0.3497 N   0  0  0  0  0  0  0  0  0  0  0  0
    0.7054   -0.1222   -0.2839 C   0  0  0  0  0  0  0  0  0  0  0  0
    1.2907   -1.3443   -0.7134 C   0  0  0  0  0  0  0  0  0  0  0  0
    2.6530   -1.2437   -0.5059 N   0  0  0  0  0  0  0  0  0  0  0  0
    3.6296   -2.2936   -0.8057 C   0  0  0  0  0  0  0  0  0  0  0  0
    2.9489    0.0056    0.0466 C   0  0  0  0  0  0  0  0  0  0  0  0
    1.7368    0.7192    0.1899 C   0  0  0  0  0  0  0  0  0  0  0  0
    4.2668    0.5120    0.4155 C   0  0  0  0  0  0  0  0  0  0  0  0
    4.5524    1.5892    0.8831 O   0  0  0  0  0  0  0  0  0  0  0  0
    5.2521   -0.4387    0.1711 O   0  0  0  0  0  0  0  0  0  0  0  0
    6.6347   -0.0598    0.4600 C   0  0  0  0  0  0  0  0  0  0  0  0
    7.1756    0.8027   -0.6614 C   0  0  0  0  0  0  0  0  0  0  0  0
   -3.4029    2.6392   -0.1816 C   0  0  0  0  0  0  0  0  0  0  0  0
   -2.9981    4.0411   -0.2451 C   0  0  0  0  0  0  0  0  0  0  0  0
   -3.5826   -1.0318    0.1373 C   0  0  0  0  0  0  0  0  0  0  0  0
   -4.1462   -1.9177   -0.7941 C   0  0  0  0  0  0  0  0  0  0  0  0
   -3.9828   -3.2953   -0.6252 C   0  0  0  0  0  0  0  0  0  0  0  0
   -3.2680   -3.7891    0.4707 C   0  0  0  0  0  0  0  0  0  0  0  0
   -2.7152   -2.9048    1.4038 C   0  0  0  0  0  0  0  0  0  0  0  0
   -2.8708   -1.5264    1.2427 C   0  0  0  0  0  0  0  0  0  0  0  0
   -1.2711   -0.5934   -0.7337 H   0  0  0  0  0  0  0  0  0  0  0  0
    0.8096   -2.2090   -1.1276 H   0  0  0  0  0  0  0  0  0  0  0  0
    3.1782   -3.1188   -1.3780 H   0  0  0  0  0  0  0  0  0  0  0  0
    4.4792   -1.8767   -1.3883 H   0  0  0  0  0  0  0  0  0  0  0  0
    4.0629   -2.6992    0.1305 H   0  0  0  0  0  0  0  0  0  0  0  0
    1.6250    1.7183    0.5868 H   0  0  0  0  0  0  0  0  0  0  0  0
    6.6622    0.4529    1.4390 H   0  0  0  0  0  0  0  0  0  0  0  0
    7.1161   -1.0518    0.5212 H   0  0  0  0  0  0  0  0  0  0  0  0
    7.0196    0.3396   -1.6430 H   0  0  0  0  0  0  0  0  0  0  0  0
    8.2491    0.9897   -0.5428 H   0  0  0  0  0  0  0  0  0  0  0  0
    6.6721    1.7823   -0.6825 H   0  0  0  0  0  0  0  0  0  0  0  0
   -1.9762    4.1671    0.1818 H   0  0  0  0  0  0  0  0  0  0  0  0
   -3.6763    4.7058    0.3146 H   0  0  0  0  0  0  0  0  0  0  0  0
   -2.9583    4.4156   -1.2825 H   0  0  0  0  0  0  0  0  0  0  0  0
   -4.7174   -1.5299   -1.6389 H   0  0  0  0  0  0  0  0  0  0  0  0
   -4.4211   -3.9847   -1.3461 H   0  0  0  0  0  0  0  0  0  0  0  0
   -3.1468   -4.8637    0.6021 H   0  0  0  0  0  0  0  0  0  0  0  0
   -2.1654   -3.2905    2.2621 H   0  0  0  0  0  0  0  0  0  0  0  0
   -2.4455   -0.8355    1.9726 H   0  0  0  0  0  0  0  0  0  0  0  0
  1 19  1  0  0  0  0
  1  2  1  0  0  0  0
  2  3  2  0  0  0  0
  3 21  1  0  0  0  0
  4  3  1  0  0  0  0
  4  5  1  0  0  0  0
  5  6  2  0  0  0  0
  7  8  1  0  0  0  0
  7  5  1  0  0  0  0
  8 13  1  0  0  0  0
  9 10  1  0  0  0  0
  9  8  2  0  0  0  0
 10 12  1  0  0  0  0
 11 10  1  0  0  0  0
 11 31  1  0  0  0  0
 12 13  2  0  0  0  0
 12 14  1  0  0  0  0
 13 32  1  0  0  0  0
 14 15  2  0  0  0  0
 16 14  1  0  0  0  0
 16 17  1  0  0  0  0
 17 34  1  0  0  0  0
 17 33  1  0  0  0  0
 18 36  1  0  0  0  0
 18 17  1  0  0  0  0
 19  4  2  0  0  0  0
 20 19  1  0  0  0  0
 20 38  1  0  0  0  0
 20 39  1  0  0  0  0
 21 26  2  0  0  0  0
 22 23  2  0  0  0  0
 22 21  1  0  0  0  0
 23 24  1  0  0  0  0
 24 43  1  0  0  0  0
 24 25  2  0  0  0  0
 25 44  1  0  0  0  0
 26 25  1  0  0  0  0
 26 45  1  0  0  0  0
 27  7  1  0  0  0  0
 28  9  1  0  0  0  0
 29 11  1  0  0  0  0
 30 11  1  0  0  0  0
 35 18  1  0  0  0  0
 37 18  1  0  0  0  0
 40 20  1  0  0  0  0
 41 22  1  0  0  0  0
 42 23  1  0  0  0  0
M  END
