omegapdb_2byh_15.log
 OpenBabel10161801213D
Gaussian 16 # PM6 Opt
 40 42  0  0  0  0  0  0  0  0999 V2000
   -7.0782    1.0965    0.5581 O   0  0  0  0  0  0  0  0  0  0  0  0
   -5.9769    1.4992    0.2435 C   0  0  0  0  0  0  0  0  0  0  0  0
   -5.7889    2.8706   -0.3386 C   0  0  0  0  0  0  0  0  0  0  0  0
   -4.7680    0.6388    0.4209 C   0  0  0  0  0  0  0  0  0  0  0  0
   -3.4675    1.0810    0.1448 C   0  0  0  0  0  0  0  0  0  0  0  0
   -2.3731    0.2354    0.3274 C   0  0  0  0  0  0  0  0  0  0  0  0
   -2.5823   -1.0778    0.7832 C   0  0  0  0  0  0  0  0  0  0  0  0
   -3.8850   -1.5324    1.0773 C   0  0  0  0  0  0  0  0  0  0  0  0
   -4.9633   -0.6721    0.8946 C   0  0  0  0  0  0  0  0  0  0  0  0
   -1.4997   -1.9834    1.0095 N   0  0  0  0  0  0  0  0  0  0  0  0
   -0.2622   -2.0447    0.3479 C   0  0  0  0  0  0  0  0  0  0  0  0
    0.5626   -2.8316    0.8225 O   0  0  0  0  0  0  0  0  0  0  0  0
   -0.0044   -1.2801   -0.8628 C   0  0  0  0  0  0  0  0  0  0  0  0
   -0.8630   -1.1840   -2.0152 C   0  0  0  0  0  0  0  0  0  0  0  0
   -0.2450   -0.4851   -2.9944 N   0  0  0  0  0  0  0  0  0  0  0  0
    0.9824   -0.1320   -2.5028 N   0  0  0  0  0  0  0  0  0  0  0  0
    1.1814   -0.5954   -1.1972 C   0  0  0  0  0  0  0  0  0  0  0  0
    2.3993   -0.2796   -0.4760 C   0  0  0  0  0  0  0  0  0  0  0  0
    2.7640    1.0768   -0.3436 C   0  0  0  0  0  0  0  0  0  0  0  0
    3.9661    1.4368    0.2411 C   0  0  0  0  0  0  0  0  0  0  0  0
    4.3998    3.0859    0.3956 Cl  0  0  0  0  0  0  0  0  0  0  0  0
    4.8547    0.4357    0.7200 C   0  0  0  0  0  0  0  0  0  0  0  0
    6.0555    0.7160    1.2841 O   0  0  0  0  0  0  0  0  0  0  0  0
    4.5130   -0.9091    0.6315 C   0  0  0  0  0  0  0  0  0  0  0  0
    3.2737   -1.2673    0.0597 C   0  0  0  0  0  0  0  0  0  0  0  0
    3.0448   -2.5877    0.0320 O   0  0  0  0  0  0  0  0  0  0  0  0
   -6.7599    3.3809   -0.4475 H   0  0  0  0  0  0  0  0  0  0  0  0
   -5.1646    3.5067    0.3017 H   0  0  0  0  0  0  0  0  0  0  0  0
   -5.3306    2.8369   -1.3351 H   0  0  0  0  0  0  0  0  0  0  0  0
   -3.2930    2.0979   -0.2119 H   0  0  0  0  0  0  0  0  0  0  0  0
   -1.3661    0.6005    0.1277 H   0  0  0  0  0  0  0  0  0  0  0  0
   -4.0543   -2.5459    1.4373 H   0  0  0  0  0  0  0  0  0  0  0  0
   -5.9835   -1.0088    1.1165 H   0  0  0  0  0  0  0  0  0  0  0  0
   -1.6290   -2.6725    1.7654 H   0  0  0  0  0  0  0  0  0  0  0  0
   -1.8564   -1.5975   -2.1184 H   0  0  0  0  0  0  0  0  0  0  0  0
    1.6305    0.3933   -3.0774 H   0  0  0  0  0  0  0  0  0  0  0  0
    2.0876    1.8559   -0.7075 H   0  0  0  0  0  0  0  0  0  0  0  0
    6.2519    1.6928    1.3436 H   0  0  0  0  0  0  0  0  0  0  0  0
    5.1790   -1.6863    1.0113 H   0  0  0  0  0  0  0  0  0  0  0  0
    2.0439   -2.8476   -0.0420 H   0  0  0  0  0  0  0  0  0  0  0  0
  2  4  1  0  0  0  0
  2  1  2  0  0  0  0
  3  2  1  0  0  0  0
  3 28  1  0  0  0  0
  4  9  2  0  0  0  0
  5  6  2  0  0  0  0
  5  4  1  0  0  0  0
  6  7  1  0  0  0  0
  7 10  1  0  0  0  0
  7  8  2  0  0  0  0
  8 32  1  0  0  0  0
  9  8  1  0  0  0  0
  9 33  1  0  0  0  0
 10 34  1  0  0  0  0
 11 12  2  0  0  0  0
 11 10  1  0  0  0  0
 13 11  1  0  0  0  0
 14 13  1  0  0  0  0
 15 16  1  0  0  0  0
 15 14  2  0  0  0  0
 16 17  1  0  0  0  0
 17 13  2  0  0  0  0
 17 18  1  0  0  0  0
 18 19  2  0  0  0  0
 18 25  1  0  0  0  0
 19 20  1  0  0  0  0
 20 21  1  0  0  0  0
 20 22  2  0  0  0  0
 22 23  1  0  0  0  0
 23 38  1  0  0  0  0
 24 22  1  0  0  0  0
 24 39  1  0  0  0  0
 25 24  2  0  0  0  0
 26 25  1  0  0  0  0
 27  3  1  0  0  0  0
 29  3  1  0  0  0  0
 30  5  1  0  0  0  0
 31  6  1  0  0  0  0
 35 14  1  0  0  0  0
 36 16  1  0  0  0  0
 37 19  1  0  0  0  0
 40 26  1  0  0  0  0
M  END
