omegapdb_1qxw_31.log
 OpenBabel10161801213D
Gaussian 16 # PM6 Opt
 36 36  0  0  1  0  0  0  0  0999 V2000
   -4.2079   -1.5230    0.1267 C   0  0  0  0  0  0  0  0  0  0  0  0
   -2.9629   -2.0632   -0.5493 C   0  0  0  0  0  0  0  0  0  0  0  0
   -2.8973   -0.7635    0.2537 C   0  0  0  0  0  0  0  0  0  0  0  0
   -2.7637    0.5498   -0.3827 N   0  0  0  0  0  0  0  0  0  0  0  0
   -1.4045    0.7821   -0.9468 C   0  0  0  0  0  0  0  0  0  0  0  0
   -0.4436    1.2817    0.1595 C   0  0  0  0  0  0  0  0  0  0  0  0
    0.8434    0.4227    0.4180 C   0  0  1  0  0  0  0  0  0  0  0  0
    0.5136   -0.9306    0.9253 N   0  0  0  0  0  0  0  0  0  0  0  0
    1.6990    0.3587   -0.8612 C   0  0  0  0  0  0  0  0  0  0  0  0
    3.2023    0.2496   -0.5722 C   0  0  0  0  0  0  0  0  0  0  0  0
    3.6032   -1.1272   -0.0262 C   0  0  0  0  0  0  0  0  0  0  0  0
    5.1060   -1.2195    0.2269 C   0  0  0  0  0  0  0  0  0  0  0  0
   -1.0245    1.4346    1.4409 O   0  0  0  0  0  0  0  0  0  0  0  0
   -0.0829    2.5972   -0.2759 O   0  0  0  0  0  0  0  0  0  0  0  0
   -5.0190   -1.1253   -0.4794 H   0  0  0  0  0  0  0  0  0  0  0  0
   -4.6117   -2.0319    1.0004 H   0  0  0  0  0  0  0  0  0  0  0  0
   -2.8940   -2.0423   -1.6332 H   0  0  0  0  0  0  0  0  0  0  0  0
   -2.4872   -2.9600   -0.1602 H   0  0  0  0  0  0  0  0  0  0  0  0
   -2.3726   -0.7708    1.2240 H   0  0  0  0  0  0  0  0  0  0  0  0
   -3.4688    0.6851   -1.1156 H   0  0  0  0  0  0  0  0  0  0  0  0
   -0.9748   -0.1061   -1.4555 H   0  0  0  0  0  0  0  0  0  0  0  0
   -1.4686    1.5864   -1.7220 H   0  0  0  0  0  0  0  0  0  0  0  0
    1.4234    0.9433    1.2295 H   0  0  0  0  0  0  0  0  0  0  0  0
   -0.0299   -1.4610    0.2516 H   0  0  0  0  0  0  0  0  0  0  0  0
   -0.0387   -0.8584    1.7789 H   0  0  0  0  0  0  0  0  0  0  0  0
    1.3821   -0.4884   -1.4988 H   0  0  0  0  0  0  0  0  0  0  0  0
    1.5189    1.2796   -1.4583 H   0  0  0  0  0  0  0  0  0  0  0  0
    3.5097    1.0387    0.1410 H   0  0  0  0  0  0  0  0  0  0  0  0
    3.7630    0.4568   -1.5052 H   0  0  0  0  0  0  0  0  0  0  0  0
    3.2885   -1.9195   -0.7315 H   0  0  0  0  0  0  0  0  0  0  0  0
    3.0448   -1.3329    0.9117 H   0  0  0  0  0  0  0  0  0  0  0  0
    5.6829   -1.0598   -0.6903 H   0  0  0  0  0  0  0  0  0  0  0  0
    5.3782   -2.2058    0.6192 H   0  0  0  0  0  0  0  0  0  0  0  0
    5.4379   -0.4746    0.9587 H   0  0  0  0  0  0  0  0  0  0  0  0
   -1.9676    1.7419    1.3800 H   0  0  0  0  0  0  0  0  0  0  0  0
    0.2870    3.1249    0.4612 H   0  0  0  0  0  0  0  0  0  0  0  0
  1  3  1  0  0  0  0
  1 16  1  0  0  0  0
  2 18  1  0  0  0  0
  2  1  1  0  0  0  0
  2  3  1  0  0  0  0
  3 19  1  0  0  0  0
  4  3  1  0  0  0  0
  5  4  1  0  0  0  0
  5  6  1  0  0  0  0
  6  7  1  0  0  0  0
  6 13  1  0  0  0  0
  7  8  1  0  0  0  0
  7 23  1  1  0  0  0
  8 25  1  0  0  0  0
  9 10  1  0  0  0  0
  9  7  1  0  0  0  0
 10 11  1  0  0  0  0
 10 28  1  0  0  0  0
 11 12  1  0  0  0  0
 11 31  1  0  0  0  0
 12 33  1  0  0  0  0
 12 34  1  0  0  0  0
 14  6  1  0  0  0  0
 14 36  1  0  0  0  0
 15  1  1  0  0  0  0
 17  2  1  0  0  0  0
 20  4  1  0  0  0  0
 21  5  1  0  0  0  0
 22  5  1  0  0  0  0
 24  8  1  0  0  0  0
 26  9  1  0  0  0  0
 27  9  1  0  0  0  0
 29 10  1  0  0  0  0
 30 11  1  0  0  0  0
 32 12  1  0  0  0  0
 35 13  1  0  0  0  0
M  END
