omegapdb_1z1r_26.log
 OpenBabel10161801213D
Gaussian 16 # PM6 Opt
 66 68  0  0  1  0  0  0  0  0999 V2000
    0.6323    0.0237   -2.9623 C   0  0  2  0  0  0  0  0  0  0  0  0
    1.9572   -0.7528   -3.1589 C   0  0  0  0  0  0  0  0  0  0  0  0
    2.7013   -1.0795   -1.8993 C   0  0  0  0  0  0  0  0  0  0  0  0
    2.3136   -2.1798   -1.1188 C   0  0  0  0  0  0  0  0  0  0  0  0
    2.9430   -2.4529    0.0935 C   0  0  0  0  0  0  0  0  0  0  0  0
    3.9908   -1.6170    0.5078 C   0  0  0  0  0  0  0  0  0  0  0  0
    4.4492   -0.5568   -0.2928 C   0  0  0  0  0  0  0  0  0  0  0  0
    3.7963   -0.2950   -1.4945 C   0  0  0  0  0  0  0  0  0  0  0  0
    4.6667   -1.8091    1.6992 O   0  0  0  0  0  0  0  0  0  0  0  0
    3.8356   -1.9978    2.8807 C   0  0  0  0  0  0  0  0  0  0  0  0
    3.3538   -0.6515    3.4170 C   0  0  0  0  0  0  0  0  0  0  0  0
    2.3316    0.0643    2.5229 C   0  0  0  0  0  0  0  0  0  0  0  0
    2.9333    1.3167    1.9225 C   0  0  0  0  0  0  0  0  0  0  0  0
    3.8684    1.9308    2.4121 O   0  0  0  0  0  0  0  0  0  0  0  0
    2.3855    1.8604    0.7492 N   0  0  0  0  0  0  0  0  0  0  0  0
    1.2355    1.3443   -0.0210 C   0  0  2  0  0  0  0  0  0  0  0  0
    1.3242    2.0168   -1.4072 C   0  0  0  0  0  0  0  0  0  0  0  0
    1.7343    3.1750   -1.4928 O   0  0  0  0  0  0  0  0  0  0  0  0
    0.8638    1.4372   -2.5830 N   0  0  0  0  0  0  0  0  0  0  0  0
   -0.0972    1.6839    0.6716 C   0  0  0  0  0  0  0  0  0  0  0  0
   -0.9109    2.8178    0.0940 C   0  0  0  0  0  0  0  0  0  0  0  0
   -2.0457    2.6466   -0.3436 O   0  0  0  0  0  0  0  0  0  0  0  0
   -0.3744    4.0971    0.1546 N   0  0  0  0  0  0  0  0  0  0  0  0
   -0.3661   -0.7140   -2.0327 C   0  0  2  0  0  0  0  0  0  0  0  0
   -0.5137   -2.0364   -2.5873 O   0  0  0  0  0  0  0  0  0  0  0  0
   -1.7967   -0.1238   -2.0843 C   0  0  0  0  0  0  0  0  0  0  0  0
   -2.8175   -1.0876   -1.6180 N   0  0  0  0  0  0  0  0  0  0  0  0
   -2.8337   -1.4860    0.0589 S   0  0  0  0  0  0  0  0  0  0  0  0
   -3.0243   -2.9226    0.1313 O   0  0  0  0  0  0  0  0  0  0  0  0
   -1.6080   -0.9321    0.6435 O   0  0  0  0  0  0  0  0  0  0  0  0
   -4.2123   -0.6792    0.6908 C   0  0  0  0  0  0  0  0  0  0  0  0
   -5.2682   -1.4420    1.2095 C   0  0  0  0  0  0  0  0  0  0  0  0
   -6.3963   -0.8085    1.7325 C   0  0  0  0  0  0  0  0  0  0  0  0
   -6.4723    0.5906    1.7336 C   0  0  0  0  0  0  0  0  0  0  0  0
   -5.4220    1.3514    1.2135 C   0  0  0  0  0  0  0  0  0  0  0  0
   -4.2898    0.7166    0.6901 C   0  0  0  0  0  0  0  0  0  0  0  0
    0.1413    0.0644   -3.9823 H   0  0  0  0  0  0  0  0  0  0  0  0
    1.7205   -1.6908   -3.7125 H   0  0  0  0  0  0  0  0  0  0  0  0
    2.6099   -0.1791   -3.8514 H   0  0  0  0  0  0  0  0  0  0  0  0
    1.5043   -2.8345   -1.4589 H   0  0  0  0  0  0  0  0  0  0  0  0
    2.6363   -3.3001    0.7027 H   0  0  0  0  0  0  0  0  0  0  0  0
    5.2873    0.0518    0.0493 H   0  0  0  0  0  0  0  0  0  0  0  0
    4.1297    0.5386   -2.1140 H   0  0  0  0  0  0  0  0  0  0  0  0
    4.5638   -2.4728    3.5679 H   0  0  0  0  0  0  0  0  0  0  0  0
    3.0133   -2.6991    2.6668 H   0  0  0  0  0  0  0  0  0  0  0  0
    4.2413    0.0137    3.5686 H   0  0  0  0  0  0  0  0  0  0  0  0
    2.9276   -0.7992    4.4291 H   0  0  0  0  0  0  0  0  0  0  0  0
    1.9332   -0.6177    1.7437 H   0  0  0  0  0  0  0  0  0  0  0  0
    1.4426    0.3561    3.1230 H   0  0  0  0  0  0  0  0  0  0  0  0
    2.7927    2.7494    0.4181 H   0  0  0  0  0  0  0  0  0  0  0  0
    1.3146    0.2222   -0.1151 H   0  0  0  0  0  0  0  0  0  0  0  0
    0.9474    2.0641   -3.3994 H   0  0  0  0  0  0  0  0  0  0  0  0
   -0.7487    0.7595    0.6872 H   0  0  0  0  0  0  0  0  0  0  0  0
    0.0733    1.8822    1.7535 H   0  0  0  0  0  0  0  0  0  0  0  0
    0.6262    4.2386    0.2464 H   0  0  0  0  0  0  0  0  0  0  0  0
   -0.8668    4.8513   -0.3070 H   0  0  0  0  0  0  0  0  0  0  0  0
    0.0059   -0.7834   -0.9824 H   0  0  0  0  0  0  0  0  0  0  0  0
    0.1133   -2.6629   -2.1444 H   0  0  0  0  0  0  0  0  0  0  0  0
   -2.0604    0.1651   -3.1286 H   0  0  0  0  0  0  0  0  0  0  0  0
   -1.8495    0.8208   -1.4852 H   0  0  0  0  0  0  0  0  0  0  0  0
   -2.8505   -1.9027   -2.2600 H   0  0  0  0  0  0  0  0  0  0  0  0
   -5.2083   -2.5372    1.2049 H   0  0  0  0  0  0  0  0  0  0  0  0
   -7.2160   -1.4000    2.1371 H   0  0  0  0  0  0  0  0  0  0  0  0
   -7.3548    1.0858    2.1409 H   0  0  0  0  0  0  0  0  0  0  0  0
   -5.4791    2.4398    1.2095 H   0  0  0  0  0  0  0  0  0  0  0  0
   -3.4710    1.3310    0.2813 H   0  0  0  0  0  0  0  0  0  0  0  0
  1 37  1  6  0  0  0
  1 19  1  0  0  0  0
  1 24  1  0  0  0  0
  2  1  1  0  0  0  0
  2  3  1  0  0  0  0
  3  8  2  0  0  0  0
  3  4  1  0  0  0  0
  4  5  2  0  0  0  0
  5  6  1  0  0  0  0
  5 41  1  0  0  0  0
  6  9  1  0  0  0  0
  7 42  1  0  0  0  0
  7  6  2  0  0  0  0
  8  7  1  0  0  0  0
  9 10  1  0  0  0  0
 10 11  1  0  0  0  0
 10 44  1  0  0  0  0
 11 46  1  0  0  0  0
 11 47  1  0  0  0  0
 12 49  1  0  0  0  0
 12 11  1  0  0  0  0
 13 14  2  0  0  0  0
 13 12  1  0  0  0  0
 15 13  1  0  0  0  0
 16 51  1  6  0  0  0
 16 20  1  0  0  0  0
 16 15  1  0  0  0  0
 17 16  1  0  0  0  0
 18 17  2  0  0  0  0
 19 17  1  0  0  0  0
 20 53  1  0  0  0  0
 20 54  1  0  0  0  0
 21 23  1  0  0  0  0
 21 20  1  0  0  0  0
 22 21  2  0  0  0  0
 23 55  1  0  0  0  0
 24 57  1  1  0  0  0
 25 58  1  0  0  0  0
 25 24  1  0  0  0  0
 26 24  1  0  0  0  0
 26 27  1  0  0  0  0
 26 60  1  0  0  0  0
 27 28  1  0  0  0  0
 28 29  2  0  0  0  0
 28 30  2  0  0  0  0
 28 31  1  0  0  0  0
 31 32  1  0  0  0  0
 32 33  2  0  0  0  0
 33 34  1  0  0  0  0
 33 63  1  0  0  0  0
 34 64  1  0  0  0  0
 35 34  2  0  0  0  0
 36 31  2  0  0  0  0
 36 35  1  0  0  0  0
 38  2  1  0  0  0  0
 39  2  1  0  0  0  0
 40  4  1  0  0  0  0
 43  8  1  0  0  0  0
 45 10  1  0  0  0  0
 48 12  1  0  0  0  0
 50 15  1  0  0  0  0
 52 19  1  0  0  0  0
 56 23  1  0  0  0  0
 59 26  1  0  0  0  0
 61 27  1  0  0  0  0
 62 32  1  0  0  0  0
 65 35  1  0  0  0  0
 66 36  1  0  0  0  0
M  END
