omegapdb_1qxw_27.log
 OpenBabel10161801213D
Gaussian 16 # PM6 Opt
 36 36  0  0  1  0  0  0  0  0999 V2000
    4.4709    0.8779    0.4397 C   0  0  0  0  0  0  0  0  0  0  0  0
    4.5319    0.7573   -1.0705 C   0  0  0  0  0  0  0  0  0  0  0  0
    3.6207   -0.1704   -0.2816 C   0  0  0  0  0  0  0  0  0  0  0  0
    2.1716   -0.0331   -0.4369 N   0  0  0  0  0  0  0  0  0  0  0  0
    1.4441   -0.4157    0.8097 C   0  0  0  0  0  0  0  0  0  0  0  0
   -0.0749   -0.2556    0.5705 C   0  0  0  0  0  0  0  0  0  0  0  0
   -0.6602   -1.1055   -0.6052 C   0  0  1  0  0  0  0  0  0  0  0  0
   -0.9142   -2.5132   -0.2159 N   0  0  0  0  0  0  0  0  0  0  0  0
   -1.9347   -0.4820   -1.2041 C   0  0  0  0  0  0  0  0  0  0  0  0
   -3.1265   -0.4077   -0.2394 C   0  0  0  0  0  0  0  0  0  0  0  0
   -4.0237    0.8087   -0.5044 C   0  0  0  0  0  0  0  0  0  0  0  0
   -3.4889    2.0860    0.1412 C   0  0  0  0  0  0  0  0  0  0  0  0
   -0.2724    1.1442    0.4613 O   0  0  0  0  0  0  0  0  0  0  0  0
   -0.7766   -0.6682    1.7499 O   0  0  0  0  0  0  0  0  0  0  0  0
    5.3193    0.5612    1.0394 H   0  0  0  0  0  0  0  0  0  0  0  0
    3.9985    1.7489    0.8853 H   0  0  0  0  0  0  0  0  0  0  0  0
    5.4215    0.3481   -1.5444 H   0  0  0  0  0  0  0  0  0  0  0  0
    4.1079    1.5454   -1.6893 H   0  0  0  0  0  0  0  0  0  0  0  0
    3.9057   -1.2294   -0.1827 H   0  0  0  0  0  0  0  0  0  0  0  0
    1.9106    0.9305   -0.6938 H   0  0  0  0  0  0  0  0  0  0  0  0
    1.7431    0.1866    1.6955 H   0  0  0  0  0  0  0  0  0  0  0  0
    1.6666   -1.4774    1.0540 H   0  0  0  0  0  0  0  0  0  0  0  0
    0.1292   -1.1196   -1.4145 H   0  0  0  0  0  0  0  0  0  0  0  0
   -0.0663   -2.9440    0.1427 H   0  0  0  0  0  0  0  0  0  0  0  0
   -1.6078   -2.5608    0.5288 H   0  0  0  0  0  0  0  0  0  0  0  0
   -1.6846    0.5220   -1.6015 H   0  0  0  0  0  0  0  0  0  0  0  0
   -2.2228   -1.0849   -2.0919 H   0  0  0  0  0  0  0  0  0  0  0  0
   -2.7760   -0.3992    0.8153 H   0  0  0  0  0  0  0  0  0  0  0  0
   -3.7246   -1.3361   -0.3301 H   0  0  0  0  0  0  0  0  0  0  0  0
   -5.0426    0.6031   -0.1190 H   0  0  0  0  0  0  0  0  0  0  0  0
   -4.1481    0.9586   -1.5950 H   0  0  0  0  0  0  0  0  0  0  0  0
   -3.6116    2.0667    1.2309 H   0  0  0  0  0  0  0  0  0  0  0  0
   -2.4159    2.2333   -0.0687 H   0  0  0  0  0  0  0  0  0  0  0  0
   -4.0142    2.9728   -0.2315 H   0  0  0  0  0  0  0  0  0  0  0  0
   -1.2178    1.3764    0.2264 H   0  0  0  0  0  0  0  0  0  0  0  0
   -0.6315   -0.0437    2.4881 H   0  0  0  0  0  0  0  0  0  0  0  0
  1 16  1  0  0  0  0
  1 15  1  0  0  0  0
  2  3  1  0  0  0  0
  2  1  1  0  0  0  0
  3 19  1  0  0  0  0
  3  1  1  0  0  0  0
  4  3  1  0  0  0  0
  4  5  1  0  0  0  0
  5 22  1  0  0  0  0
  5 21  1  0  0  0  0
  6  5  1  0  0  0  0
  6 14  1  0  0  0  0
  7 23  1  6  0  0  0
  7  8  1  0  0  0  0
  7  6  1  0  0  0  0
  8 24  1  0  0  0  0
  8 25  1  0  0  0  0
  9  7  1  0  0  0  0
  9 10  1  0  0  0  0
 10 28  1  0  0  0  0
 11 10  1  0  0  0  0
 11 30  1  0  0  0  0
 11 12  1  0  0  0  0
 12 32  1  0  0  0  0
 13  6  1  0  0  0  0
 14 36  1  0  0  0  0
 17  2  1  0  0  0  0
 18  2  1  0  0  0  0
 20  4  1  0  0  0  0
 26  9  1  0  0  0  0
 27  9  1  0  0  0  0
 29 10  1  0  0  0  0
 31 11  1  0  0  0  0
 33 12  1  0  0  0  0
 34 12  1  0  0  0  0
 35 13  1  0  0  0  0
M  END
