omegapdb_1gs5_02.log
 OpenBabel10161801213D
Gaussian 16 # PM6 Opt
 24 23  0  0  1  0  0  0  0  0999 V2000
   -0.6840    0.6411    0.5603 C   0  0  2  0  0  0  0  0  0  0  0  0
   -0.8810    1.8214   -0.3994 C   0  0  0  0  0  0  0  0  0  0  0  0
   -0.2324    2.1625   -1.3605 O   0  0  0  0  0  0  0  0  0  0  0  0
   -1.9704    2.5481   -0.0026 O   0  0  0  0  0  0  0  0  0  0  0  0
    0.6806    0.7523    1.2696 C   0  0  0  0  0  0  0  0  0  0  0  0
    1.9012    0.8680    0.3545 C   0  0  0  0  0  0  0  0  0  0  0  0
    2.4121   -0.4622   -0.1074 C   0  0  0  0  0  0  0  0  0  0  0  0
    1.8539   -1.3588   -0.7026 O   0  0  0  0  0  0  0  0  0  0  0  0
    3.7397   -0.5931    0.2171 O   0  0  0  0  0  0  0  0  0  0  0  0
   -0.8414   -0.5913   -0.2220 N   0  0  0  0  0  0  0  0  0  0  0  0
   -1.8171   -1.5414    0.1402 C   0  0  0  0  0  0  0  0  0  0  0  0
   -2.5902   -1.3134    1.0530 O   0  0  0  0  0  0  0  0  0  0  0  0
   -1.8167   -2.7815   -0.7004 C   0  0  0  0  0  0  0  0  0  0  0  0
   -1.5075    0.6784    1.3475 H   0  0  0  0  0  0  0  0  0  0  0  0
   -2.1689    3.3188   -0.6022 H   0  0  0  0  0  0  0  0  0  0  0  0
    0.6541    1.6388    1.9408 H   0  0  0  0  0  0  0  0  0  0  0  0
    0.7909   -0.1212    1.9495 H   0  0  0  0  0  0  0  0  0  0  0  0
    1.6666    1.4864   -0.5534 H   0  0  0  0  0  0  0  0  0  0  0  0
    2.7137    1.4249    0.8770 H   0  0  0  0  0  0  0  0  0  0  0  0
    4.1345   -1.4538   -0.0937 H   0  0  0  0  0  0  0  0  0  0  0  0
   -0.0865   -0.8231   -0.8815 H   0  0  0  0  0  0  0  0  0  0  0  0
   -2.5536   -3.5033   -0.3117 H   0  0  0  0  0  0  0  0  0  0  0  0
   -2.0908   -2.5702   -1.7445 H   0  0  0  0  0  0  0  0  0  0  0  0
   -0.8389   -3.2848   -0.7137 H   0  0  0  0  0  0  0  0  0  0  0  0
  1  5  1  0  0  0  0
  1 14  1  1  0  0  0
  2  4  1  0  0  0  0
  2  1  1  0  0  0  0
  3  2  2  0  0  0  0
  5 16  1  0  0  0  0
  5 17  1  0  0  0  0
  6 19  1  0  0  0  0
  6  5  1  0  0  0  0
  7  9  1  0  0  0  0
  7  6  1  0  0  0  0
  8  7  2  0  0  0  0
 10 11  1  0  0  0  0
 10  1  1  0  0  0  0
 11 12  2  0  0  0  0
 13 22  1  0  0  0  0
 13 11  1  0  0  0  0
 15  4  1  0  0  0  0
 18  6  1  0  0  0  0
 20  9  1  0  0  0  0
 21 10  1  0  0  0  0
 23 13  1  0  0  0  0
 24 13  1  0  0  0  0
M  END
