omegapdb_1xom_14.log
 OpenBabel10161801213D
Gaussian 16 # PM6 Opt
 50 52  0  0  1  0  0  0  0  0999 V2000
   -5.8418   -2.6266    0.5164 O   0  0  0  0  0  0  0  0  0  0  0  0
   -5.5571   -1.4512   -0.1611 C   0  0  0  0  0  0  0  0  0  0  0  0
   -6.4969   -0.8861   -0.6513 O   0  0  0  0  0  0  0  0  0  0  0  0
   -4.0880   -1.0598   -0.1947 C   0  0  1  0  0  0  0  0  0  0  0  0
   -3.8645    0.0479   -1.2395 C   0  0  0  0  0  0  0  0  0  0  0  0
   -2.3965    0.4764   -1.2794 C   0  0  0  0  0  0  0  0  0  0  0  0
   -1.8694    0.9140    0.1145 C   0  0  2  0  0  0  0  0  0  0  0  0
   -2.1667   -0.1734    1.1839 C   0  0  0  0  0  0  0  0  0  0  0  0
   -3.6429   -0.5810    1.1991 C   0  0  0  0  0  0  0  0  0  0  0  0
   -2.5856    2.1418    0.5153 C   0  0  0  0  0  0  0  0  0  0  0  0
   -3.1675    3.0876    0.8317 N   0  0  0  0  0  0  0  0  0  0  0  0
   -0.3641    1.1619    0.0237 C   0  0  0  0  0  0  0  0  0  0  0  0
    0.1903    2.4349    0.1570 C   0  0  0  0  0  0  0  0  0  0  0  0
    1.5765    2.6275    0.0540 C   0  0  0  0  0  0  0  0  0  0  0  0
    2.4195    1.5468   -0.1904 C   0  0  0  0  0  0  0  0  0  0  0  0
    3.7942    1.6261   -0.3197 O   0  0  0  0  0  0  0  0  0  0  0  0
    4.4098    2.9243   -0.1328 C   0  0  0  0  0  0  0  0  0  0  0  0
    1.8659    0.2393   -0.3298 C   0  0  0  0  0  0  0  0  0  0  0  0
    0.4828    0.0653   -0.2191 C   0  0  0  0  0  0  0  0  0  0  0  0
    2.5259   -0.9255   -0.6142 O   0  0  0  0  0  0  0  0  0  0  0  0
    3.9887   -1.0010   -0.4935 C   0  0  0  0  0  0  0  0  0  0  0  0
    4.2955   -2.3956   -1.0630 C   0  0  0  0  0  0  0  0  0  0  0  0
    5.0038   -3.1872    0.0497 C   0  0  0  0  0  0  0  0  0  0  0  0
    5.3502   -2.1834    1.1671 C   0  0  0  0  0  0  0  0  0  0  0  0
    4.4072   -0.9849    0.9838 C   0  0  0  0  0  0  0  0  0  0  0  0
   -5.0743   -3.0799    0.9227 H   0  0  0  0  0  0  0  0  0  0  0  0
   -3.4841   -1.9549   -0.4899 H   0  0  0  0  0  0  0  0  0  0  0  0
   -4.5200    0.9164   -1.0125 H   0  0  0  0  0  0  0  0  0  0  0  0
   -4.1852   -0.3022   -2.2410 H   0  0  0  0  0  0  0  0  0  0  0  0
   -1.7687   -0.3523   -1.6632 H   0  0  0  0  0  0  0  0  0  0  0  0
   -2.2646    1.3060   -2.0031 H   0  0  0  0  0  0  0  0  0  0  0  0
   -1.5318   -1.0611    0.9911 H   0  0  0  0  0  0  0  0  0  0  0  0
   -1.8643    0.1976    2.1837 H   0  0  0  0  0  0  0  0  0  0  0  0
   -3.8048   -1.3707    1.9570 H   0  0  0  0  0  0  0  0  0  0  0  0
   -4.2717    0.2770    1.5211 H   0  0  0  0  0  0  0  0  0  0  0  0
   -0.4344    3.3093    0.3418 H   0  0  0  0  0  0  0  0  0  0  0  0
    1.9749    3.6339    0.1624 H   0  0  0  0  0  0  0  0  0  0  0  0
    4.2195    3.2963    0.8778 H   0  0  0  0  0  0  0  0  0  0  0  0
    4.0615    3.6234   -0.8989 H   0  0  0  0  0  0  0  0  0  0  0  0
    5.4722    2.6865   -0.2729 H   0  0  0  0  0  0  0  0  0  0  0  0
    0.0835   -0.9433   -0.3297 H   0  0  0  0  0  0  0  0  0  0  0  0
    4.4231   -0.1751   -1.0912 H   0  0  0  0  0  0  0  0  0  0  0  0
    4.9179   -2.3209   -1.9693 H   0  0  0  0  0  0  0  0  0  0  0  0
    3.3543   -2.8915   -1.3743 H   0  0  0  0  0  0  0  0  0  0  0  0
    5.9072   -3.6921   -0.3289 H   0  0  0  0  0  0  0  0  0  0  0  0
    4.3416   -3.9814    0.4374 H   0  0  0  0  0  0  0  0  0  0  0  0
    5.2371   -2.6370    2.1651 H   0  0  0  0  0  0  0  0  0  0  0  0
    6.4041   -1.8637    1.0878 H   0  0  0  0  0  0  0  0  0  0  0  0
    4.8829   -0.0290    1.2580 H   0  0  0  0  0  0  0  0  0  0  0  0
    3.5131   -1.0831    1.6279 H   0  0  0  0  0  0  0  0  0  0  0  0
  1 26  1  0  0  0  0
  2  1  1  0  0  0  0
  3  2  2  0  0  0  0
  4 27  1  6  0  0  0
  4  2  1  0  0  0  0
  4  9  1  0  0  0  0
  5 28  1  0  0  0  0
  5  4  1  0  0  0  0
  6  5  1  0  0  0  0
  6  7  1  0  0  0  0
  7 12  1  6  0  0  0
  7 10  1  0  0  0  0
  7  8  1  0  0  0  0
  8  9  1  0  0  0  0
  8 33  1  0  0  0  0
  9 35  1  0  0  0  0
  9 34  1  0  0  0  0
 10 11  3  0  0  0  0
 12 13  2  0  0  0  0
 13 36  1  0  0  0  0
 14 13  1  0  0  0  0
 14 37  1  0  0  0  0
 15 14  2  0  0  0  0
 16 15  1  0  0  0  0
 16 17  1  0  0  0  0
 17 38  1  0  0  0  0
 18 19  2  0  0  0  0
 18 15  1  0  0  0  0
 19 12  1  0  0  0  0
 20 21  1  0  0  0  0
 20 18  1  0  0  0  0
 21 25  1  0  0  0  0
 22 21  1  0  0  0  0
 22 23  1  0  0  0  0
 23 46  1  0  0  0  0
 23 24  1  0  0  0  0
 24 47  1  0  0  0  0
 25 24  1  0  0  0  0
 25 49  1  0  0  0  0
 25 50  1  0  0  0  0
 29  5  1  0  0  0  0
 30  6  1  0  0  0  0
 31  6  1  0  0  0  0
 32  8  1  0  0  0  0
 39 17  1  0  0  0  0
 40 17  1  0  0  0  0
 41 19  1  0  0  0  0
 42 21  1  0  0  0  0
 43 22  1  0  0  0  0
 44 22  1  0  0  0  0
 45 23  1  0  0  0  0
 48 24  1  0  0  0  0
M  END
