omegapdb_2f7p_08.log
 OpenBabel10161801213D
Gaussian 16 # PM6 Opt
 34 35  0  0  1  0  0  0  0  0999 V2000
    0.9259    0.4718    0.5575 C   0  0  1  0  0  0  0  0  0  0  0  0
   -0.2771    0.9317   -0.1688 N   0  0  0  0  0  0  0  0  0  0  0  0
   -1.4417    1.2306    0.7255 C   0  0  0  0  0  0  0  0  0  0  0  0
   -2.7148    0.5521    0.2786 C   0  0  0  0  0  0  0  0  0  0  0  0
   -2.7943   -0.8475    0.2287 C   0  0  0  0  0  0  0  0  0  0  0  0
   -3.9835   -1.4669   -0.1620 C   0  0  0  0  0  0  0  0  0  0  0  0
   -5.0999   -0.6959   -0.5036 C   0  0  0  0  0  0  0  0  0  0  0  0
   -5.0214    0.6992   -0.4581 C   0  0  0  0  0  0  0  0  0  0  0  0
   -3.8323    1.3240   -0.0703 C   0  0  0  0  0  0  0  0  0  0  0  0
    0.9981   -1.0631    0.8708 C   0  0  1  0  0  0  0  0  0  0  0  0
    0.1335   -1.7581   -0.0164 O   0  0  0  0  0  0  0  0  0  0  0  0
    2.4869   -1.4864    0.6753 C   0  0  1  0  0  0  0  0  0  0  0  0
    2.4847   -2.5504   -0.2768 O   0  0  0  0  0  0  0  0  0  0  0  0
    3.2464   -0.2279    0.1580 C   0  0  1  0  0  0  0  0  0  0  0  0
    4.0587   -0.7067   -0.9218 O   0  0  0  0  0  0  0  0  0  0  0  0
    2.1634    0.7431   -0.3262 C   0  0  2  0  0  0  0  0  0  0  0  0
    2.7406    2.4475   -0.1356 S   0  0  0  0  0  0  0  0  0  0  0  0
    1.0173    1.0272    1.5276 H   0  0  0  0  0  0  0  0  0  0  0  0
   -0.5448    0.2261   -0.8761 H   0  0  0  0  0  0  0  0  0  0  0  0
   -1.2481    0.9654    1.7892 H   0  0  0  0  0  0  0  0  0  0  0  0
   -1.5578    2.3412    0.7036 H   0  0  0  0  0  0  0  0  0  0  0  0
   -1.9206   -1.4563    0.4837 H   0  0  0  0  0  0  0  0  0  0  0  0
   -4.0398   -2.5536   -0.2004 H   0  0  0  0  0  0  0  0  0  0  0  0
   -6.0257   -1.1808   -0.8057 H   0  0  0  0  0  0  0  0  0  0  0  0
   -5.8869    1.3020   -0.7271 H   0  0  0  0  0  0  0  0  0  0  0  0
   -3.7773    2.4105   -0.0443 H   0  0  0  0  0  0  0  0  0  0  0  0
    0.6187   -1.2946    1.8864 H   0  0  0  0  0  0  0  0  0  0  0  0
    0.6623   -2.3743   -0.6106 H   0  0  0  0  0  0  0  0  0  0  0  0
    2.9381   -1.9102    1.5949 H   0  0  0  0  0  0  0  0  0  0  0  0
    3.0574   -2.3200   -1.0652 H   0  0  0  0  0  0  0  0  0  0  0  0
    3.9248    0.1943    0.9307 H   0  0  0  0  0  0  0  0  0  0  0  0
    4.3491    0.0335   -1.4981 H   0  0  0  0  0  0  0  0  0  0  0  0
    1.9248    0.5492   -1.4014 H   0  0  0  0  0  0  0  0  0  0  0  0
    1.5868    3.0810   -0.4603 H   0  0  0  0  0  0  0  0  0  0  0  0
  1 10  1  0  0  0  0
  1 18  1  1  0  0  0
  2  1  1  0  0  0  0
  2  3  1  0  0  0  0
  3 20  1  0  0  0  0
  4  3  1  0  0  0  0
  5  4  1  0  0  0  0
  5 22  1  0  0  0  0
  6  5  2  0  0  0  0
  7  8  2  0  0  0  0
  7  6  1  0  0  0  0
  8  9  1  0  0  0  0
  9 26  1  0  0  0  0
  9  4  2  0  0  0  0
 10 27  1  1  0  0  0
 11 10  1  0  0  0  0
 12 10  1  0  0  0  0
 12 29  1  1  0  0  0
 13 12  1  0  0  0  0
 14 12  1  0  0  0  0
 14 31  1  1  0  0  0
 15 14  1  0  0  0  0
 16 33  1  6  0  0  0
 16 17  1  0  0  0  0
 16 14  1  0  0  0  0
 16  1  1  0  0  0  0
 19  2  1  0  0  0  0
 21  3  1  0  0  0  0
 23  6  1  0  0  0  0
 24  7  1  0  0  0  0
 25  8  1  0  0  0  0
 28 11  1  0  0  0  0
 30 13  1  0  0  0  0
 32 15  1  0  0  0  0
 34 17  1  0  0  0  0
M  END
