omegacsd_FABSOQ10_10.log
 OpenBabel10161801213D
Gaussian 16 # PM6 Opt
 45 47  0  0  1  0  0  0  0  0999 V2000
    0.3419    0.5931   -1.5099 S   0  0  0  0  0  0  0  0  0  0  0  0
    1.1009    1.2507   -0.0896 C   0  0  0  0  0  0  0  0  0  0  0  0
    0.3454    1.0147    1.0193 C   0  0  0  0  0  0  0  0  0  0  0  0
   -0.8748    0.3031    0.7243 C   0  0  0  0  0  0  0  0  0  0  0  0
   -1.0289    0.0165   -0.6011 C   0  0  0  0  0  0  0  0  0  0  0  0
   -2.1128   -0.7301   -1.3054 C   0  0  1  0  0  0  0  0  0  0  0  0
   -1.7270   -2.1112   -1.4230 O   0  0  0  0  0  0  0  0  0  0  0  0
   -3.4674   -0.6069   -0.6351 C   0  0  0  0  0  0  0  0  0  0  0  0
   -3.9363    0.6375   -0.2018 C   0  0  0  0  0  0  0  0  0  0  0  0
   -5.2002    0.7632    0.3838 C   0  0  0  0  0  0  0  0  0  0  0  0
   -5.9879   -0.3860    0.5213 C   0  0  0  0  0  0  0  0  0  0  0  0
   -7.2462   -0.4340    1.0780 O   0  0  0  0  0  0  0  0  0  0  0  0
   -7.8248    0.8047    1.5546 C   0  0  0  0  0  0  0  0  0  0  0  0
   -5.5407   -1.6503    0.0809 C   0  0  0  0  0  0  0  0  0  0  0  0
   -4.2831   -1.7456   -0.4996 C   0  0  0  0  0  0  0  0  0  0  0  0
    2.4129    1.9399   -0.2592 C   0  0  2  0  0  0  0  0  0  0  0  0
    2.5744    2.2365   -1.6657 O   0  0  0  0  0  0  0  0  0  0  0  0
    3.5742    1.0483    0.1142 C   0  0  0  0  0  0  0  0  0  0  0  0
    4.2011    0.2576   -0.8557 C   0  0  0  0  0  0  0  0  0  0  0  0
    5.2750   -0.5699   -0.5144 C   0  0  0  0  0  0  0  0  0  0  0  0
    5.7017   -0.5917    0.8187 C   0  0  0  0  0  0  0  0  0  0  0  0
    6.7374   -1.3500    1.3169 O   0  0  0  0  0  0  0  0  0  0  0  0
    7.4529   -2.2078    0.3953 C   0  0  0  0  0  0  0  0  0  0  0  0
    5.0819    0.1968    1.8126 C   0  0  0  0  0  0  0  0  0  0  0  0
    4.0200    1.0143    1.4479 C   0  0  0  0  0  0  0  0  0  0  0  0
    0.6038    1.3097    2.0263 H   0  0  0  0  0  0  0  0  0  0  0  0
   -1.5847    0.0414    1.4991 H   0  0  0  0  0  0  0  0  0  0  0  0
   -2.2043   -0.4334   -2.3842 H   0  0  0  0  0  0  0  0  0  0  0  0
   -1.4496   -2.4703   -0.5527 H   0  0  0  0  0  0  0  0  0  0  0  0
   -3.3130    1.5260   -0.3176 H   0  0  0  0  0  0  0  0  0  0  0  0
   -5.5479    1.7347    0.7156 H   0  0  0  0  0  0  0  0  0  0  0  0
   -7.9453    1.5109    0.7282 H   0  0  0  0  0  0  0  0  0  0  0  0
   -7.2185    1.2209    2.3640 H   0  0  0  0  0  0  0  0  0  0  0  0
   -8.8005    0.4667    1.9279 H   0  0  0  0  0  0  0  0  0  0  0  0
   -6.1857   -2.5180    0.1978 H   0  0  0  0  0  0  0  0  0  0  0  0
   -3.9184   -2.7103   -0.8646 H   0  0  0  0  0  0  0  0  0  0  0  0
    2.4417    2.9019    0.3087 H   0  0  0  0  0  0  0  0  0  0  0  0
    1.9995    2.9859   -1.9240 H   0  0  0  0  0  0  0  0  0  0  0  0
    3.8480    0.2980   -1.8907 H   0  0  0  0  0  0  0  0  0  0  0  0
    5.7530   -1.1752   -1.2765 H   0  0  0  0  0  0  0  0  0  0  0  0
    6.7780   -2.9572   -0.0281 H   0  0  0  0  0  0  0  0  0  0  0  0
    7.9387   -1.6098   -0.3810 H   0  0  0  0  0  0  0  0  0  0  0  0
    8.1957   -2.6750    1.0549 H   0  0  0  0  0  0  0  0  0  0  0  0
    5.4449    0.1497    2.8362 H   0  0  0  0  0  0  0  0  0  0  0  0
    3.5312    1.6287    2.2037 H   0  0  0  0  0  0  0  0  0  0  0  0
  1  5  1  0  0  0  0
  1  2  1  0  0  0  0
  2  3  2  0  0  0  0
  3 26  1  0  0  0  0
  4  3  1  0  0  0  0
  4 27  1  0  0  0  0
  5  4  2  0  0  0  0
  6 28  1  6  0  0  0
  6  8  1  0  0  0  0
  6  5  1  0  0  0  0
  7  6  1  0  0  0  0
  7 29  1  0  0  0  0
  8 15  2  0  0  0  0
  8  9  1  0  0  0  0
  9 10  2  0  0  0  0
 10 11  1  0  0  0  0
 10 31  1  0  0  0  0
 11 12  1  0  0  0  0
 12 13  1  0  0  0  0
 13 34  1  0  0  0  0
 13 33  1  0  0  0  0
 14 35  1  0  0  0  0
 14 11  2  0  0  0  0
 15 14  1  0  0  0  0
 16  2  1  0  0  0  0
 16 18  1  0  0  0  0
 16 37  1  1  0  0  0
 17 16  1  0  0  0  0
 18 25  2  0  0  0  0
 19 20  2  0  0  0  0
 19 18  1  0  0  0  0
 20 21  1  0  0  0  0
 21 22  1  0  0  0  0
 21 24  2  0  0  0  0
 23 43  1  0  0  0  0
 23 22  1  0  0  0  0
 24 44  1  0  0  0  0
 25 24  1  0  0  0  0
 25 45  1  0  0  0  0
 30  9  1  0  0  0  0
 32 13  1  0  0  0  0
 36 15  1  0  0  0  0
 38 17  1  0  0  0  0
 39 19  1  0  0  0  0
 40 20  1  0  0  0  0
 41 23  1  0  0  0  0
 42 23  1  0  0  0  0
M  END
