omegacsd_GALSEM_00.log
 OpenBabel10161801213D
Gaussian 16 # PM6 Opt
 39 40  0  0  0  0  0  0  0  0999 V2000
   -2.3566   -0.4406    1.0374 S   0  0  0  0  0  0  0  0  0  0  0  0
   -1.2316   -1.2163    1.5648 O   0  0  0  0  0  0  0  0  0  0  0  0
   -3.4203   -0.0066    1.9100 O   0  0  0  0  0  0  0  0  0  0  0  0
   -3.0734   -1.4880   -0.1298 N   0  0  0  0  0  0  0  0  0  0  0  0
   -4.4356   -1.5602   -0.5606 C   0  0  0  0  0  0  0  0  0  0  0  0
   -4.7165   -2.4615   -1.3209 O   0  0  0  0  0  0  0  0  0  0  0  0
   -5.3774   -0.5047   -0.0410 C   0  0  0  0  0  0  0  0  0  0  0  0
   -6.7626   -0.6576   -0.6537 C   0  0  0  0  0  0  0  0  0  0  0  0
   -1.7442    0.8616    0.1374 C   0  0  0  0  0  0  0  0  0  0  0  0
   -0.3649    1.1372   -0.0483 C   0  0  0  0  0  0  0  0  0  0  0  0
    0.5992    0.3468    0.5422 N   0  0  0  0  0  0  0  0  0  0  0  0
    2.0135    0.6177    0.4877 C   0  0  0  0  0  0  0  0  0  0  0  0
    2.8652   -0.4032    0.0293 C   0  0  0  0  0  0  0  0  0  0  0  0
    4.2448   -0.1779    0.0221 C   0  0  0  0  0  0  0  0  0  0  0  0
    4.7733    1.0445    0.4617 C   0  0  0  0  0  0  0  0  0  0  0  0
    3.9130    2.0482    0.9177 C   0  0  0  0  0  0  0  0  0  0  0  0
    2.5326    1.8436    0.9383 C   0  0  0  0  0  0  0  0  0  0  0  0
    5.1997   -1.2402   -0.4625 C   0  0  0  0  0  0  0  0  0  0  0  0
    5.9437   -0.8598   -1.5158 F   0  0  0  0  0  0  0  0  0  0  0  0
    6.1061   -1.6177    0.4551 F   0  0  0  0  0  0  0  0  0  0  0  0
    4.6522   -2.3979   -0.8632 F   0  0  0  0  0  0  0  0  0  0  0  0
   -0.0057    2.2521   -0.8737 C   0  0  0  0  0  0  0  0  0  0  0  0
   -0.9987    3.0388   -1.4218 C   0  0  0  0  0  0  0  0  0  0  0  0
   -2.3431    2.8023   -1.2112 N   0  0  0  0  0  0  0  0  0  0  0  0
   -2.6787    1.7476   -0.4597 C   0  0  0  0  0  0  0  0  0  0  0  0
   -2.4959   -2.2701   -0.4968 H   0  0  0  0  0  0  0  0  0  0  0  0
   -4.9821    0.5190   -0.2410 H   0  0  0  0  0  0  0  0  0  0  0  0
   -5.4388   -0.5685    1.0760 H   0  0  0  0  0  0  0  0  0  0  0  0
   -7.1803   -1.6556   -0.4569 H   0  0  0  0  0  0  0  0  0  0  0  0
   -6.7393   -0.5394   -1.7454 H   0  0  0  0  0  0  0  0  0  0  0  0
   -7.4604    0.0836   -0.2473 H   0  0  0  0  0  0  0  0  0  0  0  0
    0.3242   -0.5135    1.0945 H   0  0  0  0  0  0  0  0  0  0  0  0
    2.4404   -1.3509   -0.3116 H   0  0  0  0  0  0  0  0  0  0  0  0
    5.8517    1.2197    0.4544 H   0  0  0  0  0  0  0  0  0  0  0  0
    4.3253    2.9970    1.2670 H   0  0  0  0  0  0  0  0  0  0  0  0
    1.8646    2.6226    1.3110 H   0  0  0  0  0  0  0  0  0  0  0  0
    1.0407    2.4628   -1.0856 H   0  0  0  0  0  0  0  0  0  0  0  0
   -0.7724    3.9029   -2.0611 H   0  0  0  0  0  0  0  0  0  0  0  0
   -3.7674    1.5805   -0.3166 H   0  0  0  0  0  0  0  0  0  0  0  0
  1  2  2  0  0  0  0
  1  3  2  0  0  0  0
  4  1  1  0  0  0  0
  5  4  1  0  0  0  0
  5  7  1  0  0  0  0
  6  5  2  0  0  0  0
  7 28  1  0  0  0  0
  8 29  1  0  0  0  0
  8 31  1  0  0  0  0
  8  7  1  0  0  0  0
  9  1  1  0  0  0  0
 10  9  1  0  0  0  0
 10 11  1  0  0  0  0
 11 32  1  0  0  0  0
 12 11  1  0  0  0  0
 12 17  2  0  0  0  0
 13 12  1  0  0  0  0
 14 13  2  0  0  0  0
 14 15  1  0  0  0  0
 15 16  2  0  0  0  0
 16 17  1  0  0  0  0
 16 35  1  0  0  0  0
 17 36  1  0  0  0  0
 18 14  1  0  0  0  0
 18 20  1  0  0  0  0
 19 18  1  0  0  0  0
 21 18  1  0  0  0  0
 22 10  2  0  0  0  0
 23 24  2  0  0  0  0
 23 22  1  0  0  0  0
 24 25  1  0  0  0  0
 25 39  1  0  0  0  0
 25  9  2  0  0  0  0
 26  4  1  0  0  0  0
 27  7  1  0  0  0  0
 30  8  1  0  0  0  0
 33 13  1  0  0  0  0
 34 15  1  0  0  0  0
 37 22  1  0  0  0  0
 38 23  1  0  0  0  0
M  END
