omegapdb_1z1r_29.log
 OpenBabel10161801213D
Gaussian 16 # PM6 Opt
 66 68  0  0  1  0  0  0  0  0999 V2000
    0.4424   -1.9166    0.1222 C   0  0  2  0  0  0  0  0  0  0  0  0
   -0.6876   -2.9632    0.2756 C   0  0  0  0  0  0  0  0  0  0  0  0
   -2.0801   -2.4413    0.0883 C   0  0  0  0  0  0  0  0  0  0  0  0
   -2.8755   -2.0989    1.1939 C   0  0  0  0  0  0  0  0  0  0  0  0
   -4.1492   -1.5621    1.0083 C   0  0  0  0  0  0  0  0  0  0  0  0
   -4.6146   -1.3750   -0.3014 C   0  0  0  0  0  0  0  0  0  0  0  0
   -3.8629   -1.7666   -1.4194 C   0  0  0  0  0  0  0  0  0  0  0  0
   -2.5970   -2.3085   -1.2118 C   0  0  0  0  0  0  0  0  0  0  0  0
   -5.8814   -0.8214   -0.4372 O   0  0  0  0  0  0  0  0  0  0  0  0
   -5.9485    0.3717   -1.2681 C   0  0  0  0  0  0  0  0  0  0  0  0
   -5.4721    1.5962   -0.4899 C   0  0  0  0  0  0  0  0  0  0  0  0
   -3.9529    1.6653   -0.2772 C   0  0  0  0  0  0  0  0  0  0  0  0
   -3.6261    1.6811    1.2006 C   0  0  0  0  0  0  0  0  0  0  0  0
   -4.3981    2.0778    2.0619 O   0  0  0  0  0  0  0  0  0  0  0  0
   -2.3657    1.2619    1.6469 N   0  0  0  0  0  0  0  0  0  0  0  0
   -1.2334    0.7787    0.8397 C   0  0  2  0  0  0  0  0  0  0  0  0
   -0.3348   -0.0524    1.7843 C   0  0  0  0  0  0  0  0  0  0  0  0
   -0.2832    0.2109    2.9777 O   0  0  0  0  0  0  0  0  0  0  0  0
    0.5479   -1.0123    1.2878 N   0  0  0  0  0  0  0  0  0  0  0  0
   -0.3788    1.9634    0.3321 C   0  0  0  0  0  0  0  0  0  0  0  0
   -0.8174    2.3795   -1.0459 C   0  0  0  0  0  0  0  0  0  0  0  0
   -1.0491    1.5785   -1.9465 O   0  0  0  0  0  0  0  0  0  0  0  0
   -0.9493    3.7402   -1.2905 N   0  0  0  0  0  0  0  0  0  0  0  0
    0.3758   -1.1705   -1.2348 C   0  0  2  0  0  0  0  0  0  0  0  0
    0.4379   -2.2614   -2.1815 O   0  0  0  0  0  0  0  0  0  0  0  0
    1.5321   -0.1941   -1.5427 C   0  0  0  0  0  0  0  0  0  0  0  0
    2.8889   -0.6435   -1.1612 N   0  0  0  0  0  0  0  0  0  0  0  0
    3.4615   -0.0867    0.3667 S   0  0  0  0  0  0  0  0  0  0  0  0
    3.2995   -1.1779    1.3178 O   0  0  0  0  0  0  0  0  0  0  0  0
    2.7792    1.1795    0.5982 O   0  0  0  0  0  0  0  0  0  0  0  0
    5.1422    0.1672    0.0926 C   0  0  0  0  0  0  0  0  0  0  0  0
    5.5700    1.1885   -0.7625 C   0  0  0  0  0  0  0  0  0  0  0  0
    6.9367    1.3950   -0.9727 C   0  0  0  0  0  0  0  0  0  0  0  0
    7.8726    0.5819   -0.3241 C   0  0  0  0  0  0  0  0  0  0  0  0
    7.4452   -0.4374    0.5347 C   0  0  0  0  0  0  0  0  0  0  0  0
    6.0794   -0.6440    0.7437 C   0  0  0  0  0  0  0  0  0  0  0  0
    1.4094   -2.5095    0.1222 H   0  0  0  0  0  0  0  0  0  0  0  0
   -0.4929   -3.7677   -0.4732 H   0  0  0  0  0  0  0  0  0  0  0  0
   -0.5876   -3.4549    1.2660 H   0  0  0  0  0  0  0  0  0  0  0  0
   -2.4929   -2.2327    2.2067 H   0  0  0  0  0  0  0  0  0  0  0  0
   -4.7751   -1.2706    1.8516 H   0  0  0  0  0  0  0  0  0  0  0  0
   -4.2669   -1.6565   -2.4217 H   0  0  0  0  0  0  0  0  0  0  0  0
   -1.9944   -2.6277   -2.0648 H   0  0  0  0  0  0  0  0  0  0  0  0
   -7.0362    0.4168   -1.4728 H   0  0  0  0  0  0  0  0  0  0  0  0
   -5.3974    0.2149   -2.2089 H   0  0  0  0  0  0  0  0  0  0  0  0
   -5.9875    1.6092    0.5035 H   0  0  0  0  0  0  0  0  0  0  0  0
   -5.8208    2.5130   -1.0034 H   0  0  0  0  0  0  0  0  0  0  0  0
   -3.4329    0.8366   -0.8039 H   0  0  0  0  0  0  0  0  0  0  0  0
   -3.5467    2.5902   -0.7376 H   0  0  0  0  0  0  0  0  0  0  0  0
   -2.1852    1.3343    2.6640 H   0  0  0  0  0  0  0  0  0  0  0  0
   -1.5995    0.1582   -0.0287 H   0  0  0  0  0  0  0  0  0  0  0  0
    1.2394   -1.3503    1.9935 H   0  0  0  0  0  0  0  0  0  0  0  0
   -0.3917    2.7874    1.0756 H   0  0  0  0  0  0  0  0  0  0  0  0
    0.7167    1.6804    0.2899 H   0  0  0  0  0  0  0  0  0  0  0  0
   -1.2003    4.0657   -2.2122 H   0  0  0  0  0  0  0  0  0  0  0  0
   -0.7584    4.4465   -0.6015 H   0  0  0  0  0  0  0  0  0  0  0  0
   -0.5981   -0.6292   -1.3664 H   0  0  0  0  0  0  0  0  0  0  0  0
    0.2721   -1.9306   -3.0872 H   0  0  0  0  0  0  0  0  0  0  0  0
    1.5407   -0.0005   -2.6439 H   0  0  0  0  0  0  0  0  0  0  0  0
    1.3133    0.7999   -1.0719 H   0  0  0  0  0  0  0  0  0  0  0  0
    3.0349   -1.6326   -1.4083 H   0  0  0  0  0  0  0  0  0  0  0  0
    4.8409    1.8299   -1.2666 H   0  0  0  0  0  0  0  0  0  0  0  0
    7.2715    2.1896   -1.6384 H   0  0  0  0  0  0  0  0  0  0  0  0
    8.9395    0.7440   -0.4870 H   0  0  0  0  0  0  0  0  0  0  0  0
    8.1755   -1.0671    1.0421 H   0  0  0  0  0  0  0  0  0  0  0  0
    5.7425   -1.4385    1.4215 H   0  0  0  0  0  0  0  0  0  0  0  0
  1 37  1  6  0  0  0
  1  2  1  0  0  0  0
  1 19  1  0  0  0  0
  2 39  1  0  0  0  0
  3  2  1  0  0  0  0
  3  4  2  0  0  0  0
  4 40  1  0  0  0  0
  5  4  1  0  0  0  0
  5 41  1  0  0  0  0
  6  5  2  0  0  0  0
  7  8  2  0  0  0  0
  7  6  1  0  0  0  0
  8  3  1  0  0  0  0
  9  6  1  0  0  0  0
 10 11  1  0  0  0  0
 10  9  1  0  0  0  0
 11 12  1  0  0  0  0
 11 46  1  0  0  0  0
 12 13  1  0  0  0  0
 13 15  1  0  0  0  0
 13 14  2  0  0  0  0
 15 50  1  0  0  0  0
 16 51  1  6  0  0  0
 16 15  1  0  0  0  0
 16 17  1  0  0  0  0
 17 18  2  0  0  0  0
 19 17  1  0  0  0  0
 19 52  1  0  0  0  0
 20 16  1  0  0  0  0
 20 53  1  0  0  0  0
 21 20  1  0  0  0  0
 22 21  2  0  0  0  0
 23 21  1  0  0  0  0
 23 56  1  0  0  0  0
 24 57  1  6  0  0  0
 24  1  1  0  0  0  0
 25 24  1  0  0  0  0
 26 24  1  0  0  0  0
 26 27  1  0  0  0  0
 26 60  1  0  0  0  0
 27 28  1  0  0  0  0
 28 30  2  0  0  0  0
 28 29  2  0  0  0  0
 31 28  1  0  0  0  0
 31 36  2  0  0  0  0
 32 31  1  0  0  0  0
 33 32  2  0  0  0  0
 33 34  1  0  0  0  0
 34 35  2  0  0  0  0
 35 36  1  0  0  0  0
 35 65  1  0  0  0  0
 36 66  1  0  0  0  0
 38  2  1  0  0  0  0
 42  7  1  0  0  0  0
 43  8  1  0  0  0  0
 44 10  1  0  0  0  0
 45 10  1  0  0  0  0
 47 11  1  0  0  0  0
 48 12  1  0  0  0  0
 49 12  1  0  0  0  0
 54 20  1  0  0  0  0
 55 23  1  0  0  0  0
 58 25  1  0  0  0  0
 59 26  1  0  0  0  0
 61 27  1  0  0  0  0
 62 32  1  0  0  0  0
 63 33  1  0  0  0  0
 64 34  1  0  0  0  0
M  END
