omegapdb_1z1r_28.log
 OpenBabel10161801213D
Gaussian 16 # PM6 Opt
 66 68  0  0  1  0  0  0  0  0999 V2000
   -0.4778    0.3466   -0.7403 C   0  0  2  0  0  0  0  0  0  0  0  0
   -0.8517   -1.0843   -0.2856 C   0  0  0  0  0  0  0  0  0  0  0  0
    0.3797   -1.9427   -0.2707 C   0  0  0  0  0  0  0  0  0  0  0  0
    0.8902   -2.4624   -1.4733 C   0  0  0  0  0  0  0  0  0  0  0  0
    2.1420   -3.0711   -1.5044 C   0  0  0  0  0  0  0  0  0  0  0  0
    2.8795   -3.1462   -0.3100 C   0  0  0  0  0  0  0  0  0  0  0  0
    2.3398   -2.7378    0.9181 C   0  0  0  0  0  0  0  0  0  0  0  0
    1.0811   -2.1393    0.9286 C   0  0  0  0  0  0  0  0  0  0  0  0
    4.1622   -3.6503   -0.4429 O   0  0  0  0  0  0  0  0  0  0  0  0
    5.1940   -2.9771    0.3344 C   0  0  0  0  0  0  0  0  0  0  0  0
    5.5740   -1.6373   -0.3014 C   0  0  0  0  0  0  0  0  0  0  0  0
    4.5353   -0.5225   -0.1421 C   0  0  0  0  0  0  0  0  0  0  0  0
    4.2247   -0.2047    1.2949 C   0  0  0  0  0  0  0  0  0  0  0  0
    4.6410   -0.8185    2.2655 O   0  0  0  0  0  0  0  0  0  0  0  0
    3.3419    0.8604    1.5959 N   0  0  0  0  0  0  0  0  0  0  0  0
    2.7968    1.8801    0.6863 C   0  0  2  0  0  0  0  0  0  0  0  0
    1.8335    1.2175   -0.3415 C   0  0  0  0  0  0  0  0  0  0  0  0
    2.1505    1.0316   -1.5076 O   0  0  0  0  0  0  0  0  0  0  0  0
    0.5647    0.9327    0.1419 N   0  0  0  0  0  0  0  0  0  0  0  0
    3.8957    2.6648   -0.0486 C   0  0  0  0  0  0  0  0  0  0  0  0
    3.3406    3.9257   -0.6940 C   0  0  0  0  0  0  0  0  0  0  0  0
    3.3354    5.0086   -0.1318 O   0  0  0  0  0  0  0  0  0  0  0  0
    2.8720    3.7894   -1.9934 N   0  0  0  0  0  0  0  0  0  0  0  0
   -1.7503    1.2368   -0.7824 C   0  0  2  0  0  0  0  0  0  0  0  0
   -1.3888    2.3107   -1.6700 O   0  0  0  0  0  0  0  0  0  0  0  0
   -2.1885    1.8251    0.5781 C   0  0  0  0  0  0  0  0  0  0  0  0
   -3.6678    1.7754    0.6840 N   0  0  0  0  0  0  0  0  0  0  0  0
   -4.3414    0.3970    1.4859 S   0  0  0  0  0  0  0  0  0  0  0  0
   -3.2128   -0.4375    1.8725 O   0  0  0  0  0  0  0  0  0  0  0  0
   -5.2410    0.9413    2.4776 O   0  0  0  0  0  0  0  0  0  0  0  0
   -5.2361   -0.4017    0.2466 C   0  0  0  0  0  0  0  0  0  0  0  0
   -6.4754    0.1029   -0.1603 C   0  0  0  0  0  0  0  0  0  0  0  0
   -7.1976   -0.5485   -1.1649 C   0  0  0  0  0  0  0  0  0  0  0  0
   -6.6815   -1.7073   -1.7552 C   0  0  0  0  0  0  0  0  0  0  0  0
   -5.4465   -2.2188   -1.3401 C   0  0  0  0  0  0  0  0  0  0  0  0
   -4.7253   -1.5667   -0.3367 C   0  0  0  0  0  0  0  0  0  0  0  0
   -0.0575    0.3162   -1.7919 H   0  0  0  0  0  0  0  0  0  0  0  0
   -1.6115   -1.5058   -0.9728 H   0  0  0  0  0  0  0  0  0  0  0  0
   -1.3483   -1.0679    0.7141 H   0  0  0  0  0  0  0  0  0  0  0  0
    0.3216   -2.3584   -2.3965 H   0  0  0  0  0  0  0  0  0  0  0  0
    2.5694   -3.4555   -2.4273 H   0  0  0  0  0  0  0  0  0  0  0  0
    2.9075   -2.8601    1.8405 H   0  0  0  0  0  0  0  0  0  0  0  0
    0.6535   -1.8058    1.8738 H   0  0  0  0  0  0  0  0  0  0  0  0
    4.8781   -2.8719    1.3900 H   0  0  0  0  0  0  0  0  0  0  0  0
    6.0171   -3.7128    0.2599 H   0  0  0  0  0  0  0  0  0  0  0  0
    5.7558   -1.7929   -1.3864 H   0  0  0  0  0  0  0  0  0  0  0  0
    6.5402   -1.3086    0.1367 H   0  0  0  0  0  0  0  0  0  0  0  0
    4.8859    0.3920   -0.6766 H   0  0  0  0  0  0  0  0  0  0  0  0
    3.5933   -0.7964   -0.6812 H   0  0  0  0  0  0  0  0  0  0  0  0
    3.2149    1.0528    2.5952 H   0  0  0  0  0  0  0  0  0  0  0  0
    2.2075    2.6152    1.3093 H   0  0  0  0  0  0  0  0  0  0  0  0
    0.3821    0.9005    1.1415 H   0  0  0  0  0  0  0  0  0  0  0  0
    4.6869    2.9696    0.6732 H   0  0  0  0  0  0  0  0  0  0  0  0
    4.4049    2.0154   -0.7985 H   0  0  0  0  0  0  0  0  0  0  0  0
    2.6996    2.8762   -2.4076 H   0  0  0  0  0  0  0  0  0  0  0  0
    2.4247    4.5737   -2.4447 H   0  0  0  0  0  0  0  0  0  0  0  0
   -2.5839    0.6691   -1.2609 H   0  0  0  0  0  0  0  0  0  0  0  0
   -2.1729    2.8627   -1.8672 H   0  0  0  0  0  0  0  0  0  0  0  0
   -1.7032    1.2749    1.4199 H   0  0  0  0  0  0  0  0  0  0  0  0
   -1.8225    2.8753    0.6474 H   0  0  0  0  0  0  0  0  0  0  0  0
   -4.0693    2.6913    0.9210 H   0  0  0  0  0  0  0  0  0  0  0  0
   -6.8906    0.9995    0.3104 H   0  0  0  0  0  0  0  0  0  0  0  0
   -8.1632   -0.1565   -1.4831 H   0  0  0  0  0  0  0  0  0  0  0  0
   -7.2455   -2.2165   -2.5388 H   0  0  0  0  0  0  0  0  0  0  0  0
   -5.0510   -3.1273   -1.7938 H   0  0  0  0  0  0  0  0  0  0  0  0
   -3.7662   -1.9768    0.0015 H   0  0  0  0  0  0  0  0  0  0  0  0
  1 37  1  6  0  0  0
  1  2  1  0  0  0  0
  1 19  1  0  0  0  0
  2  3  1  0  0  0  0
  2 39  1  0  0  0  0
  3  8  2  0  0  0  0
  4  3  1  0  0  0  0
  5  4  2  0  0  0  0
  5  6  1  0  0  0  0
  6  7  2  0  0  0  0
  7  8  1  0  0  0  0
  7 42  1  0  0  0  0
  8 43  1  0  0  0  0
  9  6  1  0  0  0  0
  9 10  1  0  0  0  0
 10 44  1  0  0  0  0
 11 12  1  0  0  0  0
 11 47  1  0  0  0  0
 11 10  1  0  0  0  0
 12 13  1  0  0  0  0
 13 15  1  0  0  0  0
 13 14  2  0  0  0  0
 15 50  1  0  0  0  0
 16 51  1  1  0  0  0
 16 15  1  0  0  0  0
 17 19  1  0  0  0  0
 17 16  1  0  0  0  0
 18 17  2  0  0  0  0
 19 52  1  0  0  0  0
 20 53  1  0  0  0  0
 20 16  1  0  0  0  0
 21 22  2  0  0  0  0
 21 20  1  0  0  0  0
 23 21  1  0  0  0  0
 24 57  1  6  0  0  0
 24  1  1  0  0  0  0
 24 26  1  0  0  0  0
 25 24  1  0  0  0  0
 26 60  1  0  0  0  0
 26 27  1  0  0  0  0
 26 59  1  0  0  0  0
 27 61  1  0  0  0  0
 27 28  1  0  0  0  0
 28 29  2  0  0  0  0
 28 30  2  0  0  0  0
 31 28  1  0  0  0  0
 32 31  1  0  0  0  0
 32 62  1  0  0  0  0
 33 32  2  0  0  0  0
 34 35  2  0  0  0  0
 34 33  1  0  0  0  0
 35 36  1  0  0  0  0
 36 66  1  0  0  0  0
 36 31  2  0  0  0  0
 38  2  1  0  0  0  0
 40  4  1  0  0  0  0
 41  5  1  0  0  0  0
 45 10  1  0  0  0  0
 46 11  1  0  0  0  0
 48 12  1  0  0  0  0
 49 12  1  0  0  0  0
 54 20  1  0  0  0  0
 55 23  1  0  0  0  0
 56 23  1  0  0  0  0
 58 25  1  0  0  0  0
 63 33  1  0  0  0  0
 64 34  1  0  0  0  0
 65 35  1  0  0  0  0
M  END
