omegapdb_1m5f_20.log
 OpenBabel10161801213D
Gaussian 16 # PM6 Opt
 25 25  0  0  1  0  0  0  0  0999 V2000
   -1.8513   -2.6682    0.3742 O   0  0  0  0  0  0  0  0  0  0  0  0
   -1.2911   -1.8180   -0.5339 C   0  0  0  0  0  0  0  0  0  0  0  0
   -0.6605   -2.2265   -1.4801 O   0  0  0  0  0  0  0  0  0  0  0  0
   -1.5392   -0.4056   -0.1665 C   0  0  0  0  0  0  0  0  0  0  0  0
   -2.6603    0.0731    0.3890 N   0  0  0  0  0  0  0  0  0  0  0  0
   -2.5206    1.4288    0.5408 O   0  0  0  0  0  0  0  0  0  0  0  0
   -1.2478    1.8063    0.0534 C   0  0  0  0  0  0  0  0  0  0  0  0
   -0.5950    0.6804   -0.4004 C   0  0  0  0  0  0  0  0  0  0  0  0
    0.7332    0.5684   -1.0421 C   0  0  0  0  0  0  0  0  0  0  0  0
    1.8932    0.7493   -0.0395 C   0  0  2  0  0  0  0  0  0  0  0  0
    3.0817    1.2602   -0.7605 N   0  0  0  0  0  0  0  0  0  0  0  0
    2.1873   -0.5825    0.6780 C   0  0  0  0  0  0  0  0  0  0  0  0
    3.1816   -1.2472    0.5483 O   0  0  0  0  0  0  0  0  0  0  0  0
    1.2468   -1.0314    1.5741 O   0  0  0  0  0  0  0  0  0  0  0  0
   -0.9423    3.2335    0.1423 C   0  0  0  0  0  0  0  0  0  0  0  0
   -1.6736   -3.6301    0.1536 H   0  0  0  0  0  0  0  0  0  0  0  0
    0.8273    1.3422   -1.8441 H   0  0  0  0  0  0  0  0  0  0  0  0
    0.8244   -0.4036   -1.5863 H   0  0  0  0  0  0  0  0  0  0  0  0
    1.6140    1.5163    0.7343 H   0  0  0  0  0  0  0  0  0  0  0  0
    3.3862    0.6035   -1.4789 H   0  0  0  0  0  0  0  0  0  0  0  0
    3.8675    1.3828   -0.1233 H   0  0  0  0  0  0  0  0  0  0  0  0
    0.4283   -0.4862    1.6423 H   0  0  0  0  0  0  0  0  0  0  0  0
   -1.7026    3.8476   -0.3744 H   0  0  0  0  0  0  0  0  0  0  0  0
   -0.9127    3.5879    1.1875 H   0  0  0  0  0  0  0  0  0  0  0  0
    0.0337    3.4727   -0.3170 H   0  0  0  0  0  0  0  0  0  0  0  0
  2  4  1  0  0  0  0
  2  1  1  0  0  0  0
  3  2  2  0  0  0  0
  4  5  2  0  0  0  0
  5  6  1  0  0  0  0
  7 15  1  0  0  0  0
  7  6  1  0  0  0  0
  8  4  1  0  0  0  0
  8  7  2  0  0  0  0
  9  8  1  0  0  0  0
  9 10  1  0  0  0  0
 10 12  1  0  0  0  0
 10 19  1  1  0  0  0
 11 21  1  0  0  0  0
 11 10  1  0  0  0  0
 12 14  1  0  0  0  0
 13 12  2  0  0  0  0
 14 22  1  0  0  0  0
 15 24  1  0  0  0  0
 16  1  1  0  0  0  0
 17  9  1  0  0  0  0
 18  9  1  0  0  0  0
 20 11  1  0  0  0  0
 23 15  1  0  0  0  0
 25 15  1  0  0  0  0
M  END
