omegapdb_1qxw_21.log
 OpenBabel10161801213D
Gaussian 16 # PM6 Opt
 36 36  0  0  1  0  0  0  0  0999 V2000
   -4.7427    0.6492   -0.0167 C   0  0  0  0  0  0  0  0  0  0  0  0
   -3.7997    1.6349   -0.6786 C   0  0  0  0  0  0  0  0  0  0  0  0
   -3.3298    0.8113    0.5229 C   0  0  0  0  0  0  0  0  0  0  0  0
   -2.3941   -0.3058    0.3887 N   0  0  0  0  0  0  0  0  0  0  0  0
   -0.9812    0.1680    0.2736 C   0  0  0  0  0  0  0  0  0  0  0  0
   -0.0611   -1.0632    0.1252 C   0  0  0  0  0  0  0  0  0  0  0  0
    1.4626   -0.7456    0.0330 C   0  0  1  0  0  0  0  0  0  0  0  0
    2.1531   -2.0580   -0.1573 N   0  0  0  0  0  0  0  0  0  0  0  0
    1.7772    0.1800   -1.1553 C   0  0  0  0  0  0  0  0  0  0  0  0
    3.1377    0.8777   -1.0372 C   0  0  0  0  0  0  0  0  0  0  0  0
    3.1559    2.0461   -0.0391 C   0  0  0  0  0  0  0  0  0  0  0  0
    3.4109    1.6053    1.4001 C   0  0  0  0  0  0  0  0  0  0  0  0
   -0.5497   -1.7748   -1.0010 O   0  0  0  0  0  0  0  0  0  0  0  0
   -0.1599   -1.9291    1.2522 O   0  0  0  0  0  0  0  0  0  0  0  0
   -5.0258   -0.2592   -0.5447 H   0  0  0  0  0  0  0  0  0  0  0  0
   -5.5802    1.0151    0.5732 H   0  0  0  0  0  0  0  0  0  0  0  0
   -3.4144    1.4174   -1.6710 H   0  0  0  0  0  0  0  0  0  0  0  0
   -3.9700    2.7015   -0.5654 H   0  0  0  0  0  0  0  0  0  0  0  0
   -3.1895    1.3282    1.4848 H   0  0  0  0  0  0  0  0  0  0  0  0
   -2.6195   -0.8912   -0.4313 H   0  0  0  0  0  0  0  0  0  0  0  0
   -0.7105    0.7155    1.2037 H   0  0  0  0  0  0  0  0  0  0  0  0
   -0.8146    0.8624   -0.5805 H   0  0  0  0  0  0  0  0  0  0  0  0
    1.7589   -0.2357    0.9963 H   0  0  0  0  0  0  0  0  0  0  0  0
    3.1530   -1.9219   -0.2670 H   0  0  0  0  0  0  0  0  0  0  0  0
    2.0074   -2.6486    0.6627 H   0  0  0  0  0  0  0  0  0  0  0  0
    0.9764    0.9388   -1.2663 H   0  0  0  0  0  0  0  0  0  0  0  0
    1.7431   -0.4146   -2.0940 H   0  0  0  0  0  0  0  0  0  0  0  0
    3.4208    1.2604   -2.0394 H   0  0  0  0  0  0  0  0  0  0  0  0
    3.9247    0.1448   -0.7762 H   0  0  0  0  0  0  0  0  0  0  0  0
    3.9405    2.7685   -0.3427 H   0  0  0  0  0  0  0  0  0  0  0  0
    2.2016    2.6056   -0.0952 H   0  0  0  0  0  0  0  0  0  0  0  0
    4.4047    1.1598    1.5178 H   0  0  0  0  0  0  0  0  0  0  0  0
    2.6723    0.8531    1.7241 H   0  0  0  0  0  0  0  0  0  0  0  0
    3.3461    2.4509    2.0937 H   0  0  0  0  0  0  0  0  0  0  0  0
    0.0622   -2.5182   -1.2379 H   0  0  0  0  0  0  0  0  0  0  0  0
   -1.1029   -2.1369    1.4589 H   0  0  0  0  0  0  0  0  0  0  0  0
  1  3  1  0  0  0  0
  1 16  1  0  0  0  0
  2 18  1  0  0  0  0
  2  1  1  0  0  0  0
  2  3  1  0  0  0  0
  3 19  1  0  0  0  0
  4  3  1  0  0  0  0
  5  4  1  0  0  0  0
  5 21  1  0  0  0  0
  6  5  1  0  0  0  0
  6 14  1  0  0  0  0
  7  6  1  0  0  0  0
  7 23  1  1  0  0  0
  8  7  1  0  0  0  0
  8 25  1  0  0  0  0
  9 10  1  0  0  0  0
  9  7  1  0  0  0  0
 10 29  1  0  0  0  0
 10 11  1  0  0  0  0
 11 12  1  0  0  0  0
 12 32  1  0  0  0  0
 12 33  1  0  0  0  0
 12 34  1  0  0  0  0
 13  6  1  0  0  0  0
 14 36  1  0  0  0  0
 15  1  1  0  0  0  0
 17  2  1  0  0  0  0
 20  4  1  0  0  0  0
 22  5  1  0  0  0  0
 24  8  1  0  0  0  0
 26  9  1  0  0  0  0
 27  9  1  0  0  0  0
 28 10  1  0  0  0  0
 30 11  1  0  0  0  0
 31 11  1  0  0  0  0
 35 13  1  0  0  0  0
M  END
