omegapdb_1m5f_01.log
 OpenBabel10161801213D
Gaussian 16 # PM6 Opt
 25 25  0  0  1  0  0  0  0  0999 V2000
    0.8106   -2.3659    0.1697 O   0  0  0  0  0  0  0  0  0  0  0  0
    1.9717   -1.7400   -0.2537 C   0  0  0  0  0  0  0  0  0  0  0  0
    2.8608   -2.3938   -0.7296 O   0  0  0  0  0  0  0  0  0  0  0  0
    1.8680   -0.2835   -0.0365 C   0  0  0  0  0  0  0  0  0  0  0  0
    2.9010    0.4518    0.4073 N   0  0  0  0  0  0  0  0  0  0  0  0
    2.5085    1.7615    0.4526 O   0  0  0  0  0  0  0  0  0  0  0  0
    1.1675    1.8436    0.0095 C   0  0  0  0  0  0  0  0  0  0  0  0
    0.7225    0.5750   -0.2981 C   0  0  0  0  0  0  0  0  0  0  0  0
   -0.6097    0.1545   -0.7818 C   0  0  0  0  0  0  0  0  0  0  0  0
   -1.6554    0.1802    0.3536 C   0  0  2  0  0  0  0  0  0  0  0  0
   -1.4641   -0.8592    1.3955 N   0  0  0  0  0  0  0  0  0  0  0  0
   -3.0609   -0.0049   -0.2510 C   0  0  0  0  0  0  0  0  0  0  0  0
   -3.4122    0.4438   -1.3145 O   0  0  0  0  0  0  0  0  0  0  0  0
   -3.9781   -0.6799    0.4964 O   0  0  0  0  0  0  0  0  0  0  0  0
    0.6066    3.1940   -0.0148 C   0  0  0  0  0  0  0  0  0  0  0  0
    0.8550   -3.3558    0.0386 H   0  0  0  0  0  0  0  0  0  0  0  0
   -0.9528    0.8137   -1.6157 H   0  0  0  0  0  0  0  0  0  0  0  0
   -0.5603   -0.8644   -1.2296 H   0  0  0  0  0  0  0  0  0  0  0  0
   -1.6532    1.1950    0.8396 H   0  0  0  0  0  0  0  0  0  0  0  0
   -0.8040   -0.5402    2.1022 H   0  0  0  0  0  0  0  0  0  0  0  0
   -1.0592   -1.7088    0.9910 H   0  0  0  0  0  0  0  0  0  0  0  0
   -3.6096   -1.0491    1.3590 H   0  0  0  0  0  0  0  0  0  0  0  0
   -0.0289    3.3915    0.8659 H   0  0  0  0  0  0  0  0  0  0  0  0
   -0.0170    3.3598   -0.9116 H   0  0  0  0  0  0  0  0  0  0  0  0
    1.3931    3.9702   -0.0193 H   0  0  0  0  0  0  0  0  0  0  0  0
  2  4  1  0  0  0  0
  2  1  1  0  0  0  0
  3  2  2  0  0  0  0
  4  5  2  0  0  0  0
  5  6  1  0  0  0  0
  7  6  1  0  0  0  0
  8  4  1  0  0  0  0
  8  7  2  0  0  0  0
  9  8  1  0  0  0  0
  9 10  1  0  0  0  0
 10 19  1  1  0  0  0
 10 11  1  0  0  0  0
 11 20  1  0  0  0  0
 12 10  1  0  0  0  0
 12 14  1  0  0  0  0
 13 12  2  0  0  0  0
 14 22  1  0  0  0  0
 15  7  1  0  0  0  0
 15 23  1  0  0  0  0
 16  1  1  0  0  0  0
 17  9  1  0  0  0  0
 18  9  1  0  0  0  0
 21 11  1  0  0  0  0
 24 15  1  0  0  0  0
 25 15  1  0  0  0  0
M  END
