omegapdb_1m5f_21.log
 OpenBabel10161801213D
Gaussian 16 # PM6 Opt
 25 25  0  0  1  0  0  0  0  0999 V2000
   -2.2043    2.7443    0.5498 O   0  0  0  0  0  0  0  0  0  0  0  0
   -1.2863    1.9740   -0.1007 C   0  0  0  0  0  0  0  0  0  0  0  0
   -0.2976    2.4623   -0.5996 O   0  0  0  0  0  0  0  0  0  0  0  0
   -1.6688    0.5458   -0.0676 C   0  0  0  0  0  0  0  0  0  0  0  0
   -2.8692    0.0739   -0.4328 N   0  0  0  0  0  0  0  0  0  0  0  0
   -2.8542   -1.2893   -0.2951 O   0  0  0  0  0  0  0  0  0  0  0  0
   -1.5808   -1.6765    0.1839 C   0  0  0  0  0  0  0  0  0  0  0  0
   -0.7984   -0.5513    0.3337 C   0  0  0  0  0  0  0  0  0  0  0  0
    0.5966   -0.4567    0.8151 C   0  0  0  0  0  0  0  0  0  0  0  0
    1.5705    0.0322   -0.2773 C   0  0  2  0  0  0  0  0  0  0  0  0
    1.6258   -0.8077   -1.4976 N   0  0  0  0  0  0  0  0  0  0  0  0
    2.9893    0.1022    0.3131 C   0  0  0  0  0  0  0  0  0  0  0  0
    3.2490    0.2806    1.4775 O   0  0  0  0  0  0  0  0  0  0  0  0
    4.0287   -0.0115   -0.5637 O   0  0  0  0  0  0  0  0  0  0  0  0
   -1.4205   -3.1143    0.4027 C   0  0  0  0  0  0  0  0  0  0  0  0
   -1.9650    3.7180    0.5328 H   0  0  0  0  0  0  0  0  0  0  0  0
    0.6599    0.2382    1.6888 H   0  0  0  0  0  0  0  0  0  0  0  0
    0.9372   -1.4338    1.2232 H   0  0  0  0  0  0  0  0  0  0  0  0
    1.2913    1.0912   -0.5774 H   0  0  0  0  0  0  0  0  0  0  0  0
    0.8815   -0.5504   -2.1428 H   0  0  0  0  0  0  0  0  0  0  0  0
    1.5051   -1.7923   -1.2744 H   0  0  0  0  0  0  0  0  0  0  0  0
    3.7453   -0.2040   -1.5086 H   0  0  0  0  0  0  0  0  0  0  0  0
   -2.3323   -3.6782    0.1337 H   0  0  0  0  0  0  0  0  0  0  0  0
   -0.5938   -3.5345   -0.1935 H   0  0  0  0  0  0  0  0  0  0  0  0
   -1.2081   -3.3409    1.4633 H   0  0  0  0  0  0  0  0  0  0  0  0
  2  4  1  0  0  0  0
  2  1  1  0  0  0  0
  3  2  2  0  0  0  0
  4  8  1  0  0  0  0
  5  6  1  0  0  0  0
  5  4  2  0  0  0  0
  6  7  1  0  0  0  0
  7  8  2  0  0  0  0
  7 15  1  0  0  0  0
  8  9  1  0  0  0  0
  9 18  1  0  0  0  0
  9 17  1  0  0  0  0
 10 19  1  6  0  0  0
 10 12  1  0  0  0  0
 10  9  1  0  0  0  0
 11 21  1  0  0  0  0
 11 10  1  0  0  0  0
 12 13  2  0  0  0  0
 14 12  1  0  0  0  0
 15 25  1  0  0  0  0
 16  1  1  0  0  0  0
 20 11  1  0  0  0  0
 22 14  1  0  0  0  0
 23 15  1  0  0  0  0
 24 15  1  0  0  0  0
M  END
