omegacsd_SPIRIL_23.log
 OpenBabel10161801213D
Gaussian 16 # PM6 Opt
 57 60  0  0  1  0  0  0  0  0999 V2000
    2.3297   -1.9020   -0.8663 C   0  0  0  0  0  0  0  0  0  0  0  0
    3.3391   -0.9362   -0.2062 C   0  0  1  0  0  0  0  0  0  0  0  0
    4.7862   -1.4944   -0.3974 C   0  0  0  0  0  0  0  0  0  0  0  0
    5.3110   -2.4347    0.1556 O   0  0  0  0  0  0  0  0  0  0  0  0
    5.4325   -0.6895   -1.3394 N   0  0  0  0  0  0  0  0  0  0  0  0
    4.5309    0.3491   -1.9043 C   0  0  0  0  0  0  0  0  0  0  0  0
    3.3088    0.3428   -1.0240 N   0  0  0  0  0  0  0  0  0  0  0  0
    3.0971    1.5846   -0.2985 C   0  0  0  0  0  0  0  0  0  0  0  0
    4.1189    2.2794    0.3724 C   0  0  0  0  0  0  0  0  0  0  0  0
    3.8264    3.4902    1.0037 C   0  0  0  0  0  0  0  0  0  0  0  0
    2.5270    4.0075    0.9741 C   0  0  0  0  0  0  0  0  0  0  0  0
    1.5137    3.3123    0.3061 C   0  0  0  0  0  0  0  0  0  0  0  0
    1.7907    2.1023   -0.3338 C   0  0  0  0  0  0  0  0  0  0  0  0
    3.0791   -0.7861    1.3009 C   0  0  0  0  0  0  0  0  0  0  0  0
    1.5862   -0.8575    1.6409 C   0  0  0  0  0  0  0  0  0  0  0  0
    0.9941   -2.1894    1.2841 N   0  0  0  0  0  0  0  0  0  0  0  0
   -0.4781   -2.1010    1.0695 C   0  0  0  0  0  0  0  0  0  0  0  0
   -0.9471   -1.2367   -0.1192 C   0  0  0  0  0  0  0  0  0  0  0  0
   -2.4359   -1.0973   -0.1253 C   0  0  0  0  0  0  0  0  0  0  0  0
   -3.1037    0.0658   -0.1561 C   0  0  0  0  0  0  0  0  0  0  0  0
   -4.5891    0.0787   -0.1738 C   0  0  0  0  0  0  0  0  0  0  0  0
   -5.3055   -0.2874    0.9775 C   0  0  0  0  0  0  0  0  0  0  0  0
   -6.7021   -0.2723    0.9778 C   0  0  0  0  0  0  0  0  0  0  0  0
   -7.3522    0.1138   -0.1978 C   0  0  0  0  0  0  0  0  0  0  0  0
   -6.6718    0.4818   -1.3622 C   0  0  0  0  0  0  0  0  0  0  0  0
   -5.2755    0.4614   -1.3377 C   0  0  0  0  0  0  0  0  0  0  0  0
   -8.6873    0.1317   -0.2094 F   0  0  0  0  0  0  0  0  0  0  0  0
   -2.4694    1.4202   -0.1765 C   0  0  0  0  0  0  0  0  0  0  0  0
    1.7249   -2.8618    0.1699 C   0  0  0  0  0  0  0  0  0  0  0  0
    1.5267   -1.3120   -1.3554 H   0  0  0  0  0  0  0  0  0  0  0  0
    2.8089   -2.4740   -1.6819 H   0  0  0  0  0  0  0  0  0  0  0  0
    6.3692   -0.8361   -1.6816 H   0  0  0  0  0  0  0  0  0  0  0  0
    5.0352    1.3382   -1.9587 H   0  0  0  0  0  0  0  0  0  0  0  0
    4.1920    0.0621   -2.9307 H   0  0  0  0  0  0  0  0  0  0  0  0
    5.1297    1.8765    0.4079 H   0  0  0  0  0  0  0  0  0  0  0  0
    4.6153    4.0321    1.5249 H   0  0  0  0  0  0  0  0  0  0  0  0
    2.3051    4.9507    1.4697 H   0  0  0  0  0  0  0  0  0  0  0  0
    0.5030    3.7184    0.2803 H   0  0  0  0  0  0  0  0  0  0  0  0
    1.0105    1.5631   -0.8702 H   0  0  0  0  0  0  0  0  0  0  0  0
    3.5138    0.1466    1.7056 H   0  0  0  0  0  0  0  0  0  0  0  0
    3.6122   -1.6088    1.8366 H   0  0  0  0  0  0  0  0  0  0  0  0
    1.0536   -0.0087    1.1550 H   0  0  0  0  0  0  0  0  0  0  0  0
    1.4473   -0.7435    2.7402 H   0  0  0  0  0  0  0  0  0  0  0  0
   -0.9248   -1.7115    2.0123 H   0  0  0  0  0  0  0  0  0  0  0  0
   -0.8604   -3.1396    0.9579 H   0  0  0  0  0  0  0  0  0  0  0  0
   -0.6185   -1.6927   -1.0763 H   0  0  0  0  0  0  0  0  0  0  0  0
   -0.4468   -0.2438   -0.0768 H   0  0  0  0  0  0  0  0  0  0  0  0
   -2.9786   -2.0455   -0.1124 H   0  0  0  0  0  0  0  0  0  0  0  0
   -4.7666   -0.5843    1.8777 H   0  0  0  0  0  0  0  0  0  0  0  0
   -7.2626   -0.5539    1.8675 H   0  0  0  0  0  0  0  0  0  0  0  0
   -7.2097    0.7748   -2.2621 H   0  0  0  0  0  0  0  0  0  0  0  0
   -4.7150    0.7399   -2.2300 H   0  0  0  0  0  0  0  0  0  0  0  0
   -2.9209    2.0811    0.5770 H   0  0  0  0  0  0  0  0  0  0  0  0
   -1.3899    1.3771    0.0288 H   0  0  0  0  0  0  0  0  0  0  0  0
   -2.6019    1.9032   -1.1545 H   0  0  0  0  0  0  0  0  0  0  0  0
    1.0648   -3.5975   -0.3335 H   0  0  0  0  0  0  0  0  0  0  0  0
    2.5408   -3.4546    0.6517 H   0  0  0  0  0  0  0  0  0  0  0  0
  1  2  1  0  0  0  0
  1 29  1  0  0  0  0
  2  7  1  6  0  0  0
  2 14  1  0  0  0  0
  3  2  1  0  0  0  0
  3  4  2  0  0  0  0
  5  3  1  0  0  0  0
  6  5  1  0  0  0  0
  6  7  1  0  0  0  0
  7  8  1  0  0  0  0
  8  9  1  0  0  0  0
  9 35  1  0  0  0  0
  9 10  2  0  0  0  0
 10 36  1  0  0  0  0
 11 10  1  0  0  0  0
 11 37  1  0  0  0  0
 12 11  2  0  0  0  0
 13  8  2  0  0  0  0
 13 12  1  0  0  0  0
 14 15  1  0  0  0  0
 14 40  1  0  0  0  0
 14 41  1  0  0  0  0
 15 43  1  0  0  0  0
 16 15  1  0  0  0  0
 17 16  1  0  0  0  0
 17 44  1  0  0  0  0
 18 47  1  0  0  0  0
 18 17  1  0  0  0  0
 19 18  1  0  0  0  0
 19 48  1  0  0  0  0
 20 19  2  0  0  0  0
 21 20  1  0  0  0  0
 21 22  2  0  0  0  0
 22 23  1  0  0  0  0
 22 49  1  0  0  0  0
 23 50  1  0  0  0  0
 24 23  2  0  0  0  0
 25 26  2  0  0  0  0
 25 24  1  0  0  0  0
 26 21  1  0  0  0  0
 27 24  1  0  0  0  0
 28 20  1  0  0  0  0
 28 54  1  0  0  0  0
 28 53  1  0  0  0  0
 29 57  1  0  0  0  0
 29 16  1  0  0  0  0
 30  1  1  0  0  0  0
 31  1  1  0  0  0  0
 32  5  1  0  0  0  0
 33  6  1  0  0  0  0
 34  6  1  0  0  0  0
 38 12  1  0  0  0  0
 39 13  1  0  0  0  0
 42 15  1  0  0  0  0
 45 17  1  0  0  0  0
 46 18  1  0  0  0  0
 51 25  1  0  0  0  0
 52 26  1  0  0  0  0
 55 28  1  0  0  0  0
 56 29  1  0  0  0  0
M  END
