omegacsd_CUHNEY10_07.log
 OpenBabel10161801213D
Gaussian 16 # PM6 Opt
 44 47  0  0  1  0  0  0  0  0999 V2000
    4.7463    2.7783   -0.5160 Cl  0  0  0  0  0  0  0  0  0  0  0  0
    3.0852    2.4171   -0.3244 C   0  0  0  0  0  0  0  0  0  0  0  0
    2.4906    1.4300   -1.1286 C   0  0  0  0  0  0  0  0  0  0  0  0
    1.1820    1.1067   -1.0074 N   0  0  0  0  0  0  0  0  0  0  0  0
    0.4297    1.7780   -0.0744 C   0  0  0  0  0  0  0  0  0  0  0  0
   -0.9434    1.4076   -0.0264 N   0  0  0  0  0  0  0  0  0  0  0  0
   -1.9541    2.0353    0.7956 C   0  0  0  0  0  0  0  0  0  0  0  0
   -1.7444    2.9160    1.5810 O   0  0  0  0  0  0  0  0  0  0  0  0
   -3.2343    1.3564    0.3873 C   0  0  0  0  0  0  0  0  0  0  0  0
   -4.4734    1.6343    0.8143 N   0  0  0  0  0  0  0  0  0  0  0  0
   -5.4622    0.8734    0.2544 C   0  0  0  0  0  0  0  0  0  0  0  0
   -5.1945   -0.1222   -0.7086 C   0  0  0  0  0  0  0  0  0  0  0  0
   -3.9246   -0.4037   -1.1367 N   0  0  0  0  0  0  0  0  0  0  0  0
   -2.9580    0.3358   -0.5781 C   0  0  0  0  0  0  0  0  0  0  0  0
   -1.4571    0.2418   -0.8228 C   0  0  2  0  0  0  0  0  0  0  0  0
   -1.0041   -0.9355   -0.1238 O   0  0  0  0  0  0  0  0  0  0  0  0
   -0.3873   -1.9354   -0.9071 C   0  0  0  0  0  0  0  0  0  0  0  0
   -0.2832   -1.8257   -2.1070 O   0  0  0  0  0  0  0  0  0  0  0  0
   -0.1138   -3.0523   -0.1108 N   0  0  0  0  0  0  0  0  0  0  0  0
   -0.0727   -2.9172    1.3755 C   0  0  0  0  0  0  0  0  0  0  0  0
    1.2932   -3.3469    1.9588 C   0  0  0  0  0  0  0  0  0  0  0  0
    2.4683   -3.0450    1.0951 N   0  0  0  0  0  0  0  0  0  0  0  0
    2.3284   -3.6999   -0.2434 C   0  0  0  0  0  0  0  0  0  0  0  0
    0.8775   -4.0125   -0.6736 C   0  0  0  0  0  0  0  0  0  0  0  0
    2.6946   -1.5744    0.9729 C   0  0  0  0  0  0  0  0  0  0  0  0
    0.9707    2.7814    0.7631 C   0  0  0  0  0  0  0  0  0  0  0  0
    2.3193    3.0993    0.6285 C   0  0  0  0  0  0  0  0  0  0  0  0
    3.0609    0.8807   -1.8908 H   0  0  0  0  0  0  0  0  0  0  0  0
   -6.4833    1.0855    0.5968 H   0  0  0  0  0  0  0  0  0  0  0  0
   -5.9967   -0.7202   -1.1609 H   0  0  0  0  0  0  0  0  0  0  0  0
   -1.1183    0.2443   -1.8910 H   0  0  0  0  0  0  0  0  0  0  0  0
   -0.3137   -1.8724    1.6780 H   0  0  0  0  0  0  0  0  0  0  0  0
   -0.8859   -3.5616    1.7802 H   0  0  0  0  0  0  0  0  0  0  0  0
    1.3010   -4.4442    2.1478 H   0  0  0  0  0  0  0  0  0  0  0  0
    1.4454   -2.8640    2.9481 H   0  0  0  0  0  0  0  0  0  0  0  0
    2.8327   -3.0926   -1.0246 H   0  0  0  0  0  0  0  0  0  0  0  0
    2.9014   -4.6540   -0.1776 H   0  0  0  0  0  0  0  0  0  0  0  0
    0.5732   -5.0245   -0.3215 H   0  0  0  0  0  0  0  0  0  0  0  0
    0.7938   -4.0203   -1.7856 H   0  0  0  0  0  0  0  0  0  0  0  0
    3.6351   -1.4047    0.4238 H   0  0  0  0  0  0  0  0  0  0  0  0
    2.8306   -1.1457    1.9787 H   0  0  0  0  0  0  0  0  0  0  0  0
    1.8915   -1.0185    0.4660 H   0  0  0  0  0  0  0  0  0  0  0  0
    0.3456    3.3000    1.4986 H   0  0  0  0  0  0  0  0  0  0  0  0
    2.7734    3.8696    1.2567 H   0  0  0  0  0  0  0  0  0  0  0  0
  1  2  1  0  0  0  0
  2 27  2  0  0  0  0
  3  4  2  0  0  0  0
  3  2  1  0  0  0  0
  4  5  1  0  0  0  0
  5  6  1  0  0  0  0
  5 26  2  0  0  0  0
  6  7  1  0  0  0  0
  7  8  2  0  0  0  0
  9  7  1  0  0  0  0
  9 10  1  0  0  0  0
 11 29  1  0  0  0  0
 11 10  2  0  0  0  0
 12 11  1  0  0  0  0
 13 12  2  0  0  0  0
 13 14  1  0  0  0  0
 14  9  2  0  0  0  0
 15 31  1  6  0  0  0
 15 14  1  0  0  0  0
 15 16  1  0  0  0  0
 15  6  1  0  0  0  0
 17 16  1  0  0  0  0
 17 19  1  0  0  0  0
 18 17  2  0  0  0  0
 19 20  1  0  0  0  0
 20 32  1  0  0  0  0
 20 33  1  0  0  0  0
 20 21  1  0  0  0  0
 21 34  1  0  0  0  0
 21 35  1  0  0  0  0
 22 21  1  0  0  0  0
 23 37  1  0  0  0  0
 23 22  1  0  0  0  0
 24 38  1  0  0  0  0
 24 23  1  0  0  0  0
 24 19  1  0  0  0  0
 25 22  1  0  0  0  0
 25 41  1  0  0  0  0
 26 43  1  0  0  0  0
 27 26  1  0  0  0  0
 27 44  1  0  0  0  0
 28  3  1  0  0  0  0
 30 12  1  0  0  0  0
 36 23  1  0  0  0  0
 39 24  1  0  0  0  0
 40 25  1  0  0  0  0
 42 25  1  0  0  0  0
M  END
