omegapdb_1gs5_17.log
 OpenBabel10161801213D
Gaussian 16 # PM6 Opt
 24 23  0  0  1  0  0  0  0  0999 V2000
    0.3107    0.1957    0.2344 C   0  0  2  0  0  0  0  0  0  0  0  0
    0.2415    1.6907   -0.0987 C   0  0  0  0  0  0  0  0  0  0  0  0
    0.8925    2.6175    0.3041 O   0  0  0  0  0  0  0  0  0  0  0  0
   -0.7766    1.9084   -1.0094 O   0  0  0  0  0  0  0  0  0  0  0  0
   -0.6612   -0.1318    1.3852 C   0  0  0  0  0  0  0  0  0  0  0  0
   -2.1230    0.1247    1.0238 C   0  0  0  0  0  0  0  0  0  0  0  0
   -2.6270   -0.8668   -0.0031 C   0  0  0  0  0  0  0  0  0  0  0  0
   -3.1632   -1.9201    0.2203 O   0  0  0  0  0  0  0  0  0  0  0  0
   -2.4581   -0.5130   -1.3195 O   0  0  0  0  0  0  0  0  0  0  0  0
    1.6941   -0.1264    0.6111 N   0  0  0  0  0  0  0  0  0  0  0  0
    2.5189   -0.8706   -0.2642 C   0  0  0  0  0  0  0  0  0  0  0  0
    2.0680   -1.2874   -1.3119 O   0  0  0  0  0  0  0  0  0  0  0  0
    3.9152   -1.0865    0.2311 C   0  0  0  0  0  0  0  0  0  0  0  0
    0.0347   -0.4020   -0.6941 H   0  0  0  0  0  0  0  0  0  0  0  0
   -0.8444    2.8559   -1.3056 H   0  0  0  0  0  0  0  0  0  0  0  0
   -0.3991    0.4499    2.2935 H   0  0  0  0  0  0  0  0  0  0  0  0
   -0.5249   -1.2008    1.6706 H   0  0  0  0  0  0  0  0  0  0  0  0
   -2.7515    0.0278    1.9393 H   0  0  0  0  0  0  0  0  0  0  0  0
   -2.2770    1.1677    0.6753 H   0  0  0  0  0  0  0  0  0  0  0  0
   -2.0036    0.3617   -1.4732 H   0  0  0  0  0  0  0  0  0  0  0  0
    2.0595    0.3170    1.4491 H   0  0  0  0  0  0  0  0  0  0  0  0
    4.4710   -0.1455    0.3483 H   0  0  0  0  0  0  0  0  0  0  0  0
    4.4785   -1.7019   -0.4929 H   0  0  0  0  0  0  0  0  0  0  0  0
    3.9462   -1.6190    1.1919 H   0  0  0  0  0  0  0  0  0  0  0  0
  1 14  1  6  0  0  0
  1 10  1  0  0  0  0
  1  5  1  0  0  0  0
  2  1  1  0  0  0  0
  2  3  2  0  0  0  0
  4  2  1  0  0  0  0
  5 17  1  0  0  0  0
  5 16  1  0  0  0  0
  6  5  1  0  0  0  0
  6 18  1  0  0  0  0
  7  8  2  0  0  0  0
  7  6  1  0  0  0  0
  9  7  1  0  0  0  0
 10 21  1  0  0  0  0
 11 13  1  0  0  0  0
 11 10  1  0  0  0  0
 12 11  2  0  0  0  0
 13 22  1  0  0  0  0
 13 24  1  0  0  0  0
 15  4  1  0  0  0  0
 19  6  1  0  0  0  0
 20  9  1  0  0  0  0
 23 13  1  0  0  0  0
M  END
