omegapdb_2byh_00.log
 OpenBabel10161801213D
Gaussian 16 # PM6 Opt
 40 42  0  0  0  0  0  0  0  0999 V2000
    7.4371   -0.9320    1.2266 O   0  0  0  0  0  0  0  0  0  0  0  0
    6.6338   -1.2484    0.3719 C   0  0  0  0  0  0  0  0  0  0  0  0
    6.9659   -2.2977   -0.6503 C   0  0  0  0  0  0  0  0  0  0  0  0
    5.2887   -0.6052    0.3081 C   0  0  0  0  0  0  0  0  0  0  0  0
    4.3290   -0.9309   -0.6601 C   0  0  0  0  0  0  0  0  0  0  0  0
    3.0860   -0.2993   -0.6753 C   0  0  0  0  0  0  0  0  0  0  0  0
    2.7948    0.6759    0.2934 C   0  0  0  0  0  0  0  0  0  0  0  0
    3.7509    1.0146    1.2767 C   0  0  0  0  0  0  0  0  0  0  0  0
    4.9847    0.3726    1.2740 C   0  0  0  0  0  0  0  0  0  0  0  0
    1.5442    1.3695    0.3371 N   0  0  0  0  0  0  0  0  0  0  0  0
    0.4591    1.1839   -0.5347 C   0  0  0  0  0  0  0  0  0  0  0  0
    0.4755    0.3551   -1.4418 O   0  0  0  0  0  0  0  0  0  0  0  0
   -0.6866    2.0609   -0.2932 C   0  0  0  0  0  0  0  0  0  0  0  0
   -0.6593    3.4922   -0.1508 C   0  0  0  0  0  0  0  0  0  0  0  0
   -1.9199    3.9670   -0.0180 N   0  0  0  0  0  0  0  0  0  0  0  0
   -2.7498    2.8819   -0.0737 N   0  0  0  0  0  0  0  0  0  0  0  0
   -2.0429    1.6848   -0.2407 C   0  0  0  0  0  0  0  0  0  0  0  0
   -2.7339    0.4106   -0.2777 C   0  0  0  0  0  0  0  0  0  0  0  0
   -3.5818    0.0772    0.7995 C   0  0  0  0  0  0  0  0  0  0  0  0
   -4.3460   -1.0769    0.7724 C   0  0  0  0  0  0  0  0  0  0  0  0
   -5.3739   -1.4716    2.0832 Cl  0  0  0  0  0  0  0  0  0  0  0  0
   -4.2832   -1.9482   -0.3492 C   0  0  0  0  0  0  0  0  0  0  0  0
   -5.0178   -3.0832   -0.4509 O   0  0  0  0  0  0  0  0  0  0  0  0
   -3.4351   -1.6644   -1.4144 C   0  0  0  0  0  0  0  0  0  0  0  0
   -2.6398   -0.5006   -1.3672 C   0  0  0  0  0  0  0  0  0  0  0  0
   -1.8547   -0.3306   -2.4420 O   0  0  0  0  0  0  0  0  0  0  0  0
    6.2813   -3.1538   -0.5977 H   0  0  0  0  0  0  0  0  0  0  0  0
    7.9834   -2.6880   -0.4883 H   0  0  0  0  0  0  0  0  0  0  0  0
    6.9333   -1.9005   -1.6728 H   0  0  0  0  0  0  0  0  0  0  0  0
    4.5420   -1.6870   -1.4184 H   0  0  0  0  0  0  0  0  0  0  0  0
    2.3443   -0.5668   -1.4369 H   0  0  0  0  0  0  0  0  0  0  0  0
    3.5367    1.7662    2.0328 H   0  0  0  0  0  0  0  0  0  0  0  0
    5.7394    0.6225    2.0293 H   0  0  0  0  0  0  0  0  0  0  0  0
    1.4324    2.0462    1.1001 H   0  0  0  0  0  0  0  0  0  0  0  0
    0.2108    4.1315   -0.1621 H   0  0  0  0  0  0  0  0  0  0  0  0
   -3.7534    3.0025   -0.0031 H   0  0  0  0  0  0  0  0  0  0  0  0
   -3.6356    0.7388    1.6696 H   0  0  0  0  0  0  0  0  0  0  0  0
   -5.5978   -3.2576    0.3429 H   0  0  0  0  0  0  0  0  0  0  0  0
   -3.3655   -2.3349   -2.2731 H   0  0  0  0  0  0  0  0  0  0  0  0
   -1.0442    0.2904   -2.2849 H   0  0  0  0  0  0  0  0  0  0  0  0
  2  1  2  0  0  0  0
  3 27  1  0  0  0  0
  3 28  1  0  0  0  0
  3  2  1  0  0  0  0
  4  2  1  0  0  0  0
  4  9  2  0  0  0  0
  5  4  1  0  0  0  0
  6  5  2  0  0  0  0
  6  7  1  0  0  0  0
  7 10  1  0  0  0  0
  7  8  2  0  0  0  0
  8 32  1  0  0  0  0
  9  8  1  0  0  0  0
  9 33  1  0  0  0  0
 10 34  1  0  0  0  0
 11 13  1  0  0  0  0
 11 10  1  0  0  0  0
 12 11  2  0  0  0  0
 13 17  2  0  0  0  0
 13 14  1  0  0  0  0
 14 15  2  0  0  0  0
 16 15  1  0  0  0  0
 16 36  1  0  0  0  0
 17 16  1  0  0  0  0
 18 17  1  0  0  0  0
 18 19  2  0  0  0  0
 19 37  1  0  0  0  0
 20 19  1  0  0  0  0
 20 21  1  0  0  0  0
 22 20  2  0  0  0  0
 23 22  1  0  0  0  0
 23 38  1  0  0  0  0
 24 25  2  0  0  0  0
 24 22  1  0  0  0  0
 25 18  1  0  0  0  0
 26 40  1  0  0  0  0
 26 25  1  0  0  0  0
 29  3  1  0  0  0  0
 30  5  1  0  0  0  0
 31  6  1  0  0  0  0
 35 14  1  0  0  0  0
 39 24  1  0  0  0  0
M  END
