omegacsd_CUHNEY10_19.log
 OpenBabel10161801213D
Gaussian 16 # PM6 Opt
 44 47  0  0  1  0  0  0  0  0999 V2000
   -1.6319   -5.4013    0.2066 Cl  0  0  0  0  0  0  0  0  0  0  0  0
   -0.6354   -4.0181    0.0523 C   0  0  0  0  0  0  0  0  0  0  0  0
    0.1429   -3.5952    1.1447 C   0  0  0  0  0  0  0  0  0  0  0  0
    0.9423   -2.5061    1.0680 N   0  0  0  0  0  0  0  0  0  0  0  0
    1.0003   -1.8280   -0.1197 C   0  0  0  0  0  0  0  0  0  0  0  0
    1.9051   -0.7226   -0.1834 N   0  0  0  0  0  0  0  0  0  0  0  0
    3.0643   -0.5572    0.6783 C   0  0  0  0  0  0  0  0  0  0  0  0
    3.5784   -1.4099    1.3330 O   0  0  0  0  0  0  0  0  0  0  0  0
    3.5016    0.8696    0.4181 C   0  0  0  0  0  0  0  0  0  0  0  0
    4.5523    1.5062    0.9495 N   0  0  0  0  0  0  0  0  0  0  0  0
    4.7300    2.7937    0.5203 C   0  0  0  0  0  0  0  0  0  0  0  0
    3.8750    3.3998   -0.4225 C   0  0  0  0  0  0  0  0  0  0  0  0
    2.7993    2.7445   -0.9610 N   0  0  0  0  0  0  0  0  0  0  0  0
    2.6233    1.4900   -0.5258 C   0  0  0  0  0  0  0  0  0  0  0  0
    1.5236    0.5197   -0.9252 C   0  0  2  0  0  0  0  0  0  0  0  0
    0.3018    1.0248   -0.3435 O   0  0  0  0  0  0  0  0  0  0  0  0
   -0.8458    0.9762   -1.1586 C   0  0  0  0  0  0  0  0  0  0  0  0
   -0.8205    0.4506   -2.2548 O   0  0  0  0  0  0  0  0  0  0  0  0
   -1.8751    1.6736   -0.5552 N   0  0  0  0  0  0  0  0  0  0  0  0
   -3.2579    1.4757   -1.0838 C   0  0  0  0  0  0  0  0  0  0  0  0
   -4.2261    1.1685    0.0719 C   0  0  0  0  0  0  0  0  0  0  0  0
   -4.2816    2.2283    1.1236 N   0  0  0  0  0  0  0  0  0  0  0  0
   -2.9671    2.9419    1.2746 C   0  0  0  0  0  0  0  0  0  0  0  0
   -1.7684    2.0655    0.8829 C   0  0  0  0  0  0  0  0  0  0  0  0
   -5.3707    3.2133    0.8536 C   0  0  0  0  0  0  0  0  0  0  0  0
    0.2264   -2.1891   -1.2477 C   0  0  0  0  0  0  0  0  0  0  0  0
   -0.5993   -3.3068   -1.1519 C   0  0  0  0  0  0  0  0  0  0  0  0
    0.1286   -4.1256    2.1069 H   0  0  0  0  0  0  0  0  0  0  0  0
    5.5853    3.3289    0.9524 H   0  0  0  0  0  0  0  0  0  0  0  0
    4.0332    4.4286   -0.7700 H   0  0  0  0  0  0  0  0  0  0  0  0
    1.4070    0.3463   -2.0241 H   0  0  0  0  0  0  0  0  0  0  0  0
   -3.5460    2.4169   -1.6069 H   0  0  0  0  0  0  0  0  0  0  0  0
   -3.2729    0.6658   -1.8484 H   0  0  0  0  0  0  0  0  0  0  0  0
   -3.9147    0.2333    0.5960 H   0  0  0  0  0  0  0  0  0  0  0  0
   -5.2403    0.9643   -0.3309 H   0  0  0  0  0  0  0  0  0  0  0  0
   -2.9280    3.8961    0.7033 H   0  0  0  0  0  0  0  0  0  0  0  0
   -2.8858    3.2069    2.3548 H   0  0  0  0  0  0  0  0  0  0  0  0
   -1.7106    1.1618    1.5330 H   0  0  0  0  0  0  0  0  0  0  0  0
   -0.8121    2.6250    1.0177 H   0  0  0  0  0  0  0  0  0  0  0  0
   -5.4030    3.9477    1.6754 H   0  0  0  0  0  0  0  0  0  0  0  0
   -5.2828    3.7593   -0.0967 H   0  0  0  0  0  0  0  0  0  0  0  0
   -6.3386    2.6852    0.8647 H   0  0  0  0  0  0  0  0  0  0  0  0
    0.2582   -1.6059   -2.1719 H   0  0  0  0  0  0  0  0  0  0  0  0
   -1.2067   -3.6227   -2.0030 H   0  0  0  0  0  0  0  0  0  0  0  0
  2  1  1  0  0  0  0
  2  3  2  0  0  0  0
  3 28  1  0  0  0  0
  4  3  1  0  0  0  0
  5  4  2  0  0  0  0
  6  5  1  0  0  0  0
  6  7  1  0  0  0  0
  7  8  2  0  0  0  0
  9  7  1  0  0  0  0
  9 10  2  0  0  0  0
 11 10  1  0  0  0  0
 11 29  1  0  0  0  0
 12 11  2  0  0  0  0
 13 14  2  0  0  0  0
 13 12  1  0  0  0  0
 14  9  1  0  0  0  0
 15 31  1  6  0  0  0
 15 14  1  0  0  0  0
 15 16  1  0  0  0  0
 15  6  1  0  0  0  0
 17 19  1  0  0  0  0
 17 16  1  0  0  0  0
 18 17  2  0  0  0  0
 19 24  1  0  0  0  0
 20 19  1  0  0  0  0
 20 21  1  0  0  0  0
 21 34  1  0  0  0  0
 21 22  1  0  0  0  0
 22 23  1  0  0  0  0
 23 37  1  0  0  0  0
 24 39  1  0  0  0  0
 24 23  1  0  0  0  0
 24 38  1  0  0  0  0
 25 42  1  0  0  0  0
 25 22  1  0  0  0  0
 25 40  1  0  0  0  0
 26 27  2  0  0  0  0
 26  5  1  0  0  0  0
 27  2  1  0  0  0  0
 30 12  1  0  0  0  0
 32 20  1  0  0  0  0
 33 20  1  0  0  0  0
 35 21  1  0  0  0  0
 36 23  1  0  0  0  0
 41 25  1  0  0  0  0
 43 26  1  0  0  0  0
 44 27  1  0  0  0  0
M  END
