omegacsd_FIBREN_06.log
 OpenBabel10161801213D
Gaussian 16 # PM6 Opt
 39 41  0  0  1  0  0  0  0  0999 V2000
    3.0166   -0.4206    1.8546 N   0  0  0  0  0  0  0  0  0  0  0  0
    1.7465   -0.1315    2.3190 C   0  0  0  0  0  0  0  0  0  0  0  0
    0.6419    0.1223    1.5500 N   0  0  0  0  0  0  0  0  0  0  0  0
    0.7489    0.1130    0.1671 C   0  0  0  0  0  0  0  0  0  0  0  0
    2.0144   -0.1892   -0.4038 C   0  0  0  0  0  0  0  0  0  0  0  0
    3.0956   -0.4381    0.5060 C   0  0  0  0  0  0  0  0  0  0  0  0
    4.2289   -0.7029   -0.2301 O   0  0  0  0  0  0  0  0  0  0  0  0
    3.7744   -0.6020   -1.6137 C   0  0  0  0  0  0  0  0  0  0  0  0
    2.4975   -0.3072   -1.7253 N   0  0  0  0  0  0  0  0  0  0  0  0
    4.8398   -0.8504   -2.5873 C   0  0  0  0  0  0  0  0  0  0  0  0
   -0.3377    0.4248   -0.6133 N   0  0  0  0  0  0  0  0  0  0  0  0
   -1.6961    0.6397   -0.0471 C   0  0  1  0  0  0  0  0  0  0  0  0
   -2.3771    1.8069   -0.7926 C   0  0  0  0  0  0  0  0  0  0  0  0
   -1.7243    3.1237   -0.4901 C   0  0  0  0  0  0  0  0  0  0  0  0
   -1.2061    3.9117   -1.2420 O   0  0  0  0  0  0  0  0  0  0  0  0
   -1.8053    3.3997    0.8553 O   0  0  0  0  0  0  0  0  0  0  0  0
   -2.5005   -0.6431   -0.1642 C   0  0  0  0  0  0  0  0  0  0  0  0
   -3.0283   -1.0731   -1.3893 C   0  0  0  0  0  0  0  0  0  0  0  0
   -3.7529   -2.2665   -1.4578 C   0  0  0  0  0  0  0  0  0  0  0  0
   -3.9486   -3.0369   -0.3071 C   0  0  0  0  0  0  0  0  0  0  0  0
   -3.4130   -2.6147    0.9138 C   0  0  0  0  0  0  0  0  0  0  0  0
   -2.6875   -1.4225    0.9866 C   0  0  0  0  0  0  0  0  0  0  0  0
    1.5665   -0.1064    3.7982 C   0  0  0  0  0  0  0  0  0  0  0  0
    4.4708   -0.7418   -3.6228 H   0  0  0  0  0  0  0  0  0  0  0  0
    5.6800   -0.1456   -2.4556 H   0  0  0  0  0  0  0  0  0  0  0  0
    5.2543   -1.8686   -2.4833 H   0  0  0  0  0  0  0  0  0  0  0  0
   -0.2505    0.3165   -1.6260 H   0  0  0  0  0  0  0  0  0  0  0  0
   -1.5934    0.9329    1.0442 H   0  0  0  0  0  0  0  0  0  0  0  0
   -2.3803    1.6502   -1.8934 H   0  0  0  0  0  0  0  0  0  0  0  0
   -3.4501    1.8461   -0.4906 H   0  0  0  0  0  0  0  0  0  0  0  0
   -1.3573    4.2542    1.1005 H   0  0  0  0  0  0  0  0  0  0  0  0
   -2.8757   -0.4862   -2.2929 H   0  0  0  0  0  0  0  0  0  0  0  0
   -4.1632   -2.5977   -2.4107 H   0  0  0  0  0  0  0  0  0  0  0  0
   -4.5139   -3.9660   -0.3627 H   0  0  0  0  0  0  0  0  0  0  0  0
   -3.5574   -3.2170    1.8099 H   0  0  0  0  0  0  0  0  0  0  0  0
   -2.2565   -1.1037    1.9377 H   0  0  0  0  0  0  0  0  0  0  0  0
    2.4103    0.4012    4.2954 H   0  0  0  0  0  0  0  0  0  0  0  0
    1.5330   -1.1323    4.2017 H   0  0  0  0  0  0  0  0  0  0  0  0
    0.6349    0.4007    4.0944 H   0  0  0  0  0  0  0  0  0  0  0  0
  1  2  1  0  0  0  0
  2 23  1  0  0  0  0
  3  2  2  0  0  0  0
  4  3  1  0  0  0  0
  5  4  2  0  0  0  0
  5  6  1  0  0  0  0
  6  1  2  0  0  0  0
  7  6  1  0  0  0  0
  8  7  1  0  0  0  0
  9  8  2  0  0  0  0
  9  5  1  0  0  0  0
 10 26  1  0  0  0  0
 10 25  1  0  0  0  0
 10  8  1  0  0  0  0
 11 12  1  0  0  0  0
 11  4  1  0  0  0  0
 12 28  1  1  0  0  0
 13 30  1  0  0  0  0
 13 14  1  0  0  0  0
 13 12  1  0  0  0  0
 14 16  1  0  0  0  0
 15 14  2  0  0  0  0
 16 31  1  0  0  0  0
 17 12  1  0  0  0  0
 17 22  2  0  0  0  0
 18 17  1  0  0  0  0
 19 18  2  0  0  0  0
 19 20  1  0  0  0  0
 20 21  2  0  0  0  0
 21 22  1  0  0  0  0
 21 35  1  0  0  0  0
 22 36  1  0  0  0  0
 23 39  1  0  0  0  0
 23 38  1  0  0  0  0
 23 37  1  0  0  0  0
 24 10  1  0  0  0  0
 27 11  1  0  0  0  0
 29 13  1  0  0  0  0
 32 18  1  0  0  0  0
 33 19  1  0  0  0  0
 34 20  1  0  0  0  0
M  END
