omegapdb_2byh_02.log
 OpenBabel10161801213D
Gaussian 16 # PM6 Opt
 40 42  0  0  0  0  0  0  0  0999 V2000
   -6.5676   -0.0215    0.6666 O   0  0  0  0  0  0  0  0  0  0  0  0
   -5.8546    0.2946   -0.2651 C   0  0  0  0  0  0  0  0  0  0  0  0
   -6.4011    1.1078   -1.4070 C   0  0  0  0  0  0  0  0  0  0  0  0
   -4.4231   -0.1120   -0.3161 C   0  0  0  0  0  0  0  0  0  0  0  0
   -3.5396    0.3214   -1.3157 C   0  0  0  0  0  0  0  0  0  0  0  0
   -2.2086   -0.0854   -1.3149 C   0  0  0  0  0  0  0  0  0  0  0  0
   -1.7422   -0.9484   -0.2951 C   0  0  0  0  0  0  0  0  0  0  0  0
   -2.6206   -1.3912    0.7110 C   0  0  0  0  0  0  0  0  0  0  0  0
   -3.9460   -0.9697    0.6934 C   0  0  0  0  0  0  0  0  0  0  0  0
   -0.3691   -1.3228   -0.3359 N   0  0  0  0  0  0  0  0  0  0  0  0
    0.2911   -2.2102    0.5602 C   0  0  0  0  0  0  0  0  0  0  0  0
   -0.2935   -2.7647    1.4670 O   0  0  0  0  0  0  0  0  0  0  0  0
    1.7171   -2.3787    0.2548 C   0  0  0  0  0  0  0  0  0  0  0  0
    2.3727   -3.6561    0.2025 C   0  0  0  0  0  0  0  0  0  0  0  0
    3.6829   -3.4909   -0.1084 N   0  0  0  0  0  0  0  0  0  0  0  0
    3.8859   -2.1472   -0.2293 N   0  0  0  0  0  0  0  0  0  0  0  0
    2.7126   -1.4190   -0.0182 C   0  0  0  0  0  0  0  0  0  0  0  0
    2.6615    0.0329   -0.0503 C   0  0  0  0  0  0  0  0  0  0  0  0
    1.7987    0.7298    0.8163 C   0  0  0  0  0  0  0  0  0  0  0  0
    1.7230    2.1182    0.7750 C   0  0  0  0  0  0  0  0  0  0  0  0
    0.6661    2.9569    1.8236 Cl  0  0  0  0  0  0  0  0  0  0  0  0
    2.5214    2.8527   -0.1330 C   0  0  0  0  0  0  0  0  0  0  0  0
    2.4950    4.2028   -0.2358 O   0  0  0  0  0  0  0  0  0  0  0  0
    3.4089    2.1925   -0.9939 C   0  0  0  0  0  0  0  0  0  0  0  0
    3.4723    0.7977   -0.9270 C   0  0  0  0  0  0  0  0  0  0  0  0
    4.3444    0.0879   -1.7073 O   0  0  0  0  0  0  0  0  0  0  0  0
   -6.2882    0.5920   -2.3683 H   0  0  0  0  0  0  0  0  0  0  0  0
   -7.4767    1.2973   -1.2646 H   0  0  0  0  0  0  0  0  0  0  0  0
   -5.9103    2.0853   -1.4839 H   0  0  0  0  0  0  0  0  0  0  0  0
   -3.8872    0.9868   -2.1073 H   0  0  0  0  0  0  0  0  0  0  0  0
   -1.5395    0.2603   -2.0979 H   0  0  0  0  0  0  0  0  0  0  0  0
   -2.2675   -2.0657    1.4999 H   0  0  0  0  0  0  0  0  0  0  0  0
   -4.6394   -1.3048    1.4743 H   0  0  0  0  0  0  0  0  0  0  0  0
    0.1773   -0.9432   -1.1160 H   0  0  0  0  0  0  0  0  0  0  0  0
    1.9207   -4.6219    0.3808 H   0  0  0  0  0  0  0  0  0  0  0  0
    4.7914   -1.7802   -0.5024 H   0  0  0  0  0  0  0  0  0  0  0  0
    1.1799    0.1739    1.5328 H   0  0  0  0  0  0  0  0  0  0  0  0
    1.8570    4.6414    0.3992 H   0  0  0  0  0  0  0  0  0  0  0  0
    4.0230    2.7736   -1.6781 H   0  0  0  0  0  0  0  0  0  0  0  0
    4.8515    0.6674   -2.3378 H   0  0  0  0  0  0  0  0  0  0  0  0
  2  1  2  0  0  0  0
  3 28  1  0  0  0  0
  3  2  1  0  0  0  0
  4  2  1  0  0  0  0
  4  9  2  0  0  0  0
  5  6  2  0  0  0  0
  5  4  1  0  0  0  0
  6  7  1  0  0  0  0
  7  8  2  0  0  0  0
  8 32  1  0  0  0  0
  9  8  1  0  0  0  0
  9 33  1  0  0  0  0
 10  7  1  0  0  0  0
 10 11  1  0  0  0  0
 11 12  2  0  0  0  0
 13 11  1  0  0  0  0
 14 13  1  0  0  0  0
 14 35  1  0  0  0  0
 15 14  2  0  0  0  0
 16 15  1  0  0  0  0
 16 17  1  0  0  0  0
 17 13  2  0  0  0  0
 18 17  1  0  0  0  0
 18 19  2  0  0  0  0
 19 37  1  0  0  0  0
 20 19  1  0  0  0  0
 20 21  1  0  0  0  0
 22 20  2  0  0  0  0
 23 22  1  0  0  0  0
 23 38  1  0  0  0  0
 24 25  2  0  0  0  0
 24 22  1  0  0  0  0
 25 18  1  0  0  0  0
 26 25  1  0  0  0  0
 27  3  1  0  0  0  0
 29  3  1  0  0  0  0
 30  5  1  0  0  0  0
 31  6  1  0  0  0  0
 34 10  1  0  0  0  0
 36 16  1  0  0  0  0
 39 24  1  0  0  0  0
 40 26  1  0  0  0  0
M  END
