omegacsd_SEYMIS_04.log
 OpenBabel10161801213D
Gaussian 16 # PM6 Opt
 45 47  0  0  0  0  0  0  0  0999 V2000
   -1.6369   -1.2857    2.5660 O   0  0  0  0  0  0  0  0  0  0  0  0
   -2.7230   -0.4889    2.2150 N   0  0  0  0  0  0  0  0  0  0  0  0
   -2.8000   -0.4345    0.8753 C   0  0  0  0  0  0  0  0  0  0  0  0
   -1.7050   -1.2143    0.3085 C   0  0  0  0  0  0  0  0  0  0  0  0
   -1.4365   -1.4402   -1.1174 C   0  0  0  0  0  0  0  0  0  0  0  0
   -2.2068   -1.9804   -1.8960 O   0  0  0  0  0  0  0  0  0  0  0  0
   -0.1887   -1.0351   -1.6236 N   0  0  0  0  0  0  0  0  0  0  0  0
    0.8007   -0.3150   -0.9102 C   0  0  0  0  0  0  0  0  0  0  0  0
    0.5803    0.7928   -0.0506 C   0  0  0  0  0  0  0  0  0  0  0  0
    1.8093    1.2051    0.4224 N   0  0  0  0  0  0  0  0  0  0  0  0
    2.0091    2.3190    1.3533 C   0  0  0  0  0  0  0  0  0  0  0  0
    2.8108    0.3907   -0.1221 C   0  0  0  0  0  0  0  0  0  0  0  0
    2.1921   -0.5643   -0.9565 C   0  0  0  0  0  0  0  0  0  0  0  0
    4.2358    0.5541    0.1575 C   0  0  0  0  0  0  0  0  0  0  0  0
    4.7698    1.3868    0.8655 O   0  0  0  0  0  0  0  0  0  0  0  0
    4.9581   -0.4130   -0.4962 O   0  0  0  0  0  0  0  0  0  0  0  0
    6.4179   -0.3745   -0.3591 C   0  0  0  0  0  0  0  0  0  0  0  0
    6.9886    0.6959   -1.2639 C   0  0  0  0  0  0  0  0  0  0  0  0
   -1.0193   -1.7249    1.3921 C   0  0  0  0  0  0  0  0  0  0  0  0
    0.1516   -2.5817    1.5747 C   0  0  0  0  0  0  0  0  0  0  0  0
   -3.8310    0.3260    0.1605 C   0  0  0  0  0  0  0  0  0  0  0  0
   -4.4457   -0.2105   -0.9815 C   0  0  0  0  0  0  0  0  0  0  0  0
   -5.4314    0.5225   -1.6471 C   0  0  0  0  0  0  0  0  0  0  0  0
   -5.8085    1.7846   -1.1780 C   0  0  0  0  0  0  0  0  0  0  0  0
   -5.2013    2.3169   -0.0351 C   0  0  0  0  0  0  0  0  0  0  0  0
   -4.2165    1.5913    0.6380 C   0  0  0  0  0  0  0  0  0  0  0  0
    0.0166   -1.2479   -2.6042 H   0  0  0  0  0  0  0  0  0  0  0  0
   -0.3561    1.2551    0.2128 H   0  0  0  0  0  0  0  0  0  0  0  0
    1.4840    2.1367    2.3086 H   0  0  0  0  0  0  0  0  0  0  0  0
    1.6361    3.2660    0.9225 H   0  0  0  0  0  0  0  0  0  0  0  0
    3.0911    2.4606    1.5850 H   0  0  0  0  0  0  0  0  0  0  0  0
    2.7074   -1.3219   -1.5174 H   0  0  0  0  0  0  0  0  0  0  0  0
    6.6684   -0.2141    0.7046 H   0  0  0  0  0  0  0  0  0  0  0  0
    6.6749   -1.4017   -0.6775 H   0  0  0  0  0  0  0  0  0  0  0  0
    6.6020    0.6079   -2.2878 H   0  0  0  0  0  0  0  0  0  0  0  0
    6.7269    1.7027   -0.9043 H   0  0  0  0  0  0  0  0  0  0  0  0
    8.0825    0.6387   -1.3135 H   0  0  0  0  0  0  0  0  0  0  0  0
   -0.0044   -3.5813    1.1299 H   0  0  0  0  0  0  0  0  0  0  0  0
    1.0460   -2.1511    1.0819 H   0  0  0  0  0  0  0  0  0  0  0  0
    0.4028   -2.7339    2.6380 H   0  0  0  0  0  0  0  0  0  0  0  0
   -4.1509   -1.2000   -1.3536 H   0  0  0  0  0  0  0  0  0  0  0  0
   -5.9057    0.1050   -2.5348 H   0  0  0  0  0  0  0  0  0  0  0  0
   -6.5768    2.3527   -1.7003 H   0  0  0  0  0  0  0  0  0  0  0  0
   -5.4998    3.2968    0.3336 H   0  0  0  0  0  0  0  0  0  0  0  0
   -3.7532    1.9991    1.5367 H   0  0  0  0  0  0  0  0  0  0  0  0
  2  1  1  0  0  0  0
  3  2  2  0  0  0  0
  4  3  1  0  0  0  0
  4 19  2  0  0  0  0
  5  4  1  0  0  0  0
  6  5  2  0  0  0  0
  7  5  1  0  0  0  0
  7  8  1  0  0  0  0
  8  9  2  0  0  0  0
  9 28  1  0  0  0  0
  9 10  1  0  0  0  0
 10 11  1  0  0  0  0
 11 31  1  0  0  0  0
 11 29  1  0  0  0  0
 12 14  1  0  0  0  0
 12 10  1  0  0  0  0
 13  8  1  0  0  0  0
 13 12  2  0  0  0  0
 14 15  2  0  0  0  0
 16 17  1  0  0  0  0
 16 14  1  0  0  0  0
 17 33  1  0  0  0  0
 18 36  1  0  0  0  0
 18 17  1  0  0  0  0
 19 20  1  0  0  0  0
 19  1  1  0  0  0  0
 20 40  1  0  0  0  0
 21 26  1  0  0  0  0
 21  3  1  0  0  0  0
 22 21  2  0  0  0  0
 23 24  2  0  0  0  0
 23 22  1  0  0  0  0
 24 25  1  0  0  0  0
 25 44  1  0  0  0  0
 25 26  2  0  0  0  0
 26 45  1  0  0  0  0
 27  7  1  0  0  0  0
 30 11  1  0  0  0  0
 32 13  1  0  0  0  0
 34 17  1  0  0  0  0
 35 18  1  0  0  0  0
 37 18  1  0  0  0  0
 38 20  1  0  0  0  0
 39 20  1  0  0  0  0
 41 22  1  0  0  0  0
 42 23  1  0  0  0  0
 43 24  1  0  0  0  0
M  END
