omegapdb_1xom_04.log
 OpenBabel10161801213D
Gaussian 16 # PM6 Opt
 50 52  0  0  1  0  0  0  0  0999 V2000
    6.3240   -0.5418    0.1947 O   0  0  0  0  0  0  0  0  0  0  0  0
    5.4935   -1.6038   -0.0789 C   0  0  0  0  0  0  0  0  0  0  0  0
    5.9672   -2.7030   -0.2449 O   0  0  0  0  0  0  0  0  0  0  0  0
    4.0400   -1.1785   -0.1258 C   0  0  1  0  0  0  0  0  0  0  0  0
    3.6088   -0.6176    1.2411 C   0  0  0  0  0  0  0  0  0  0  0  0
    2.1433   -0.1773    1.2078 C   0  0  0  0  0  0  0  0  0  0  0  0
    1.8628    0.8488    0.0755 C   0  0  2  0  0  0  0  0  0  0  0  0
    2.3659    0.3108   -1.2922 C   0  0  0  0  0  0  0  0  0  0  0  0
    3.8287   -0.1359   -1.2382 C   0  0  0  0  0  0  0  0  0  0  0  0
    2.6137    2.0816    0.3878 C   0  0  0  0  0  0  0  0  0  0  0  0
    3.2227    3.0316    0.6329 N   0  0  0  0  0  0  0  0  0  0  0  0
    0.3628    1.1270   -0.0139 C   0  0  0  0  0  0  0  0  0  0  0  0
   -0.1659    2.4124    0.1054 C   0  0  0  0  0  0  0  0  0  0  0  0
   -1.5486    2.6310    0.0087 C   0  0  0  0  0  0  0  0  0  0  0  0
   -2.4143    1.5635   -0.2143 C   0  0  0  0  0  0  0  0  0  0  0  0
   -3.7878    1.6686   -0.3393 O   0  0  0  0  0  0  0  0  0  0  0  0
   -4.3786    2.9770   -0.1443 C   0  0  0  0  0  0  0  0  0  0  0  0
   -1.8876    0.2435   -0.3366 C   0  0  0  0  0  0  0  0  0  0  0  0
   -0.5074    0.0437   -0.2323 C   0  0  0  0  0  0  0  0  0  0  0  0
   -2.5728   -0.9115   -0.6000 O   0  0  0  0  0  0  0  0  0  0  0  0
   -4.0342   -0.9630   -0.4507 C   0  0  0  0  0  0  0  0  0  0  0  0
   -4.3670   -2.3500   -1.0223 C   0  0  0  0  0  0  0  0  0  0  0  0
   -5.2786   -3.0321    0.0091 C   0  0  0  0  0  0  0  0  0  0  0  0
   -5.0302   -2.3244    1.3553 C   0  0  0  0  0  0  0  0  0  0  0  0
   -4.4273   -0.9465    1.0343 C   0  0  0  0  0  0  0  0  0  0  0  0
    7.2831   -0.8040    0.2291 H   0  0  0  0  0  0  0  0  0  0  0  0
    3.4350   -2.0949   -0.3577 H   0  0  0  0  0  0  0  0  0  0  0  0
    3.7532   -1.3796    2.0317 H   0  0  0  0  0  0  0  0  0  0  0  0
    4.2650    0.2361    1.5175 H   0  0  0  0  0  0  0  0  0  0  0  0
    1.4880   -1.0612    1.0729 H   0  0  0  0  0  0  0  0  0  0  0  0
    1.8560    0.2599    2.1847 H   0  0  0  0  0  0  0  0  0  0  0  0
    2.2362    1.0909   -2.0687 H   0  0  0  0  0  0  0  0  0  0  0  0
    1.7236   -0.5346   -1.6108 H   0  0  0  0  0  0  0  0  0  0  0  0
    4.1291   -0.5543   -2.2186 H   0  0  0  0  0  0  0  0  0  0  0  0
    4.4948    0.7366   -1.0624 H   0  0  0  0  0  0  0  0  0  0  0  0
    0.4769    3.2767    0.2745 H   0  0  0  0  0  0  0  0  0  0  0  0
   -1.9266    3.6464    0.1044 H   0  0  0  0  0  0  0  0  0  0  0  0
   -4.0253    3.6710   -0.9127 H   0  0  0  0  0  0  0  0  0  0  0  0
   -4.1720    3.3439    0.8649 H   0  0  0  0  0  0  0  0  0  0  0  0
   -5.4463    2.7584   -0.2743 H   0  0  0  0  0  0  0  0  0  0  0  0
   -0.1292   -0.9749   -0.3277 H   0  0  0  0  0  0  0  0  0  0  0  0
   -4.4672   -0.1266   -1.0348 H   0  0  0  0  0  0  0  0  0  0  0  0
   -4.8391   -2.2809   -2.0143 H   0  0  0  0  0  0  0  0  0  0  0  0
   -3.4274   -2.9231   -1.1663 H   0  0  0  0  0  0  0  0  0  0  0  0
   -6.3377   -2.9380   -0.2887 H   0  0  0  0  0  0  0  0  0  0  0  0
   -5.0696   -4.1122    0.0783 H   0  0  0  0  0  0  0  0  0  0  0  0
   -5.9614   -2.2318    1.9369 H   0  0  0  0  0  0  0  0  0  0  0  0
   -4.3317   -2.9136    1.9758 H   0  0  0  0  0  0  0  0  0  0  0  0
   -5.1441   -0.1321    1.2346 H   0  0  0  0  0  0  0  0  0  0  0  0
   -3.5445   -0.7390    1.6656 H   0  0  0  0  0  0  0  0  0  0  0  0
  1 26  1  0  0  0  0
  2  1  1  0  0  0  0
  3  2  2  0  0  0  0
  4 27  1  6  0  0  0
  4  2  1  0  0  0  0
  4  5  1  0  0  0  0
  5 29  1  0  0  0  0
  5 28  1  0  0  0  0
  6  5  1  0  0  0  0
  6 31  1  0  0  0  0
  7 12  1  6  0  0  0
  7 10  1  0  0  0  0
  7  6  1  0  0  0  0
  8  9  1  0  0  0  0
  8  7  1  0  0  0  0
  9 35  1  0  0  0  0
  9  4  1  0  0  0  0
 10 11  3  0  0  0  0
 12 13  2  0  0  0  0
 13 36  1  0  0  0  0
 14 37  1  0  0  0  0
 14 13  1  0  0  0  0
 15 14  2  0  0  0  0
 16 15  1  0  0  0  0
 16 17  1  0  0  0  0
 17 39  1  0  0  0  0
 18 19  2  0  0  0  0
 18 15  1  0  0  0  0
 19 12  1  0  0  0  0
 20 21  1  0  0  0  0
 20 18  1  0  0  0  0
 21 25  1  0  0  0  0
 22 21  1  0  0  0  0
 22 23  1  0  0  0  0
 23 46  1  0  0  0  0
 23 24  1  0  0  0  0
 24 47  1  0  0  0  0
 24 48  1  0  0  0  0
 25 49  1  0  0  0  0
 25 24  1  0  0  0  0
 25 50  1  0  0  0  0
 30  6  1  0  0  0  0
 32  8  1  0  0  0  0
 33  8  1  0  0  0  0
 34  9  1  0  0  0  0
 38 17  1  0  0  0  0
 40 17  1  0  0  0  0
 41 19  1  0  0  0  0
 42 21  1  0  0  0  0
 43 22  1  0  0  0  0
 44 22  1  0  0  0  0
 45 23  1  0  0  0  0
M  END
