omegacsd_FIBREN_08.log
 OpenBabel10161801213D
Gaussian 16 # PM6 Opt
 39 41  0  0  1  0  0  0  0  0999 V2000
    2.9940   -1.0851    1.6048 N   0  0  0  0  0  0  0  0  0  0  0  0
    1.7188   -0.9972    2.1311 C   0  0  0  0  0  0  0  0  0  0  0  0
    0.6177   -0.4790    1.5006 N   0  0  0  0  0  0  0  0  0  0  0  0
    0.7379    0.0394    0.2209 C   0  0  0  0  0  0  0  0  0  0  0  0
    2.0105   -0.0191   -0.4090 C   0  0  0  0  0  0  0  0  0  0  0  0
    3.0846   -0.5916    0.3502 C   0  0  0  0  0  0  0  0  0  0  0  0
    4.2263   -0.5558   -0.4197 O   0  0  0  0  0  0  0  0  0  0  0  0
    3.7839    0.0603   -1.6660 C   0  0  0  0  0  0  0  0  0  0  0  0
    2.5064    0.3741   -1.6712 N   0  0  0  0  0  0  0  0  0  0  0  0
    4.8590    0.1998   -2.6509 C   0  0  0  0  0  0  0  0  0  0  0  0
   -0.3433    0.6258   -0.3922 N   0  0  0  0  0  0  0  0  0  0  0  0
   -1.7039    0.6140    0.2096 C   0  0  1  0  0  0  0  0  0  0  0  0
   -2.4179    1.9358   -0.1402 C   0  0  0  0  0  0  0  0  0  0  0  0
   -1.8241    3.0892    0.6127 C   0  0  0  0  0  0  0  0  0  0  0  0
   -1.6530    3.2450    1.7958 O   0  0  0  0  0  0  0  0  0  0  0  0
   -1.4783    4.0836   -0.2755 O   0  0  0  0  0  0  0  0  0  0  0  0
   -2.4747   -0.5920   -0.2984 C   0  0  0  0  0  0  0  0  0  0  0  0
   -3.0364   -0.6232   -1.5820 C   0  0  0  0  0  0  0  0  0  0  0  0
   -3.7281   -1.7583   -2.0146 C   0  0  0  0  0  0  0  0  0  0  0  0
   -3.8562   -2.8671   -1.1718 C   0  0  0  0  0  0  0  0  0  0  0  0
   -3.2852   -2.8422    0.1045 C   0  0  0  0  0  0  0  0  0  0  0  0
   -2.5927   -1.7095    0.5410 C   0  0  0  0  0  0  0  0  0  0  0  0
    1.5220   -1.5265    3.5101 C   0  0  0  0  0  0  0  0  0  0  0  0
    5.6953    0.8020   -2.2538 H   0  0  0  0  0  0  0  0  0  0  0  0
    5.2764   -0.7821   -2.9357 H   0  0  0  0  0  0  0  0  0  0  0  0
    4.4988    0.6915   -3.5719 H   0  0  0  0  0  0  0  0  0  0  0  0
   -0.2542    0.8928   -1.3745 H   0  0  0  0  0  0  0  0  0  0  0  0
   -1.5974    0.5535    1.3375 H   0  0  0  0  0  0  0  0  0  0  0  0
   -2.4024    2.1385   -1.2345 H   0  0  0  0  0  0  0  0  0  0  0  0
   -3.4976    1.8499    0.1264 H   0  0  0  0  0  0  0  0  0  0  0  0
   -1.0724    4.8759    0.1695 H   0  0  0  0  0  0  0  0  0  0  0  0
   -2.9356    0.2296   -2.2501 H   0  0  0  0  0  0  0  0  0  0  0  0
   -4.1654   -1.7795   -3.0117 H   0  0  0  0  0  0  0  0  0  0  0  0
   -4.3961   -3.7500   -1.5107 H   0  0  0  0  0  0  0  0  0  0  0  0
   -3.3762   -3.7077    0.7596 H   0  0  0  0  0  0  0  0  0  0  0  0
   -2.1312   -1.6988    1.5310 H   0  0  0  0  0  0  0  0  0  0  0  0
    0.9296   -0.8310    4.1271 H   0  0  0  0  0  0  0  0  0  0  0  0
    0.9769   -2.4840    3.4878 H   0  0  0  0  0  0  0  0  0  0  0  0
    2.4836   -1.7043    4.0210 H   0  0  0  0  0  0  0  0  0  0  0  0
  1  2  1  0  0  0  0
  2 23  1  0  0  0  0
  3  2  2  0  0  0  0
  4  3  1  0  0  0  0
  5  4  2  0  0  0  0
  5  6  1  0  0  0  0
  6  1  2  0  0  0  0
  7  6  1  0  0  0  0
  8  7  1  0  0  0  0
  9  8  2  0  0  0  0
  9  5  1  0  0  0  0
 10 24  1  0  0  0  0
 10  8  1  0  0  0  0
 11 12  1  0  0  0  0
 11  4  1  0  0  0  0
 12 28  1  1  0  0  0
 13 30  1  0  0  0  0
 13 12  1  0  0  0  0
 13 14  1  0  0  0  0
 14 15  2  0  0  0  0
 16 31  1  0  0  0  0
 16 14  1  0  0  0  0
 17 12  1  0  0  0  0
 17 22  2  0  0  0  0
 18 17  1  0  0  0  0
 19 18  2  0  0  0  0
 19 20  1  0  0  0  0
 20 21  2  0  0  0  0
 21 22  1  0  0  0  0
 21 35  1  0  0  0  0
 22 36  1  0  0  0  0
 23 39  1  0  0  0  0
 23 37  1  0  0  0  0
 25 10  1  0  0  0  0
 26 10  1  0  0  0  0
 27 11  1  0  0  0  0
 29 13  1  0  0  0  0
 32 18  1  0  0  0  0
 33 19  1  0  0  0  0
 34 20  1  0  0  0  0
 38 23  1  0  0  0  0
M  END
