omegapdb_1v2k_09.log
 OpenBabel10161801213D
Gaussian 16 # PM6 Opt
 61 65  0  0  0  0  0  0  0  0999 V2000
    8.6981    1.6793   -1.3642 N   0  0  0  0  0  0  0  0  0  0  0  0
    8.4439    0.3547   -1.1875 C   0  0  0  0  0  0  0  0  0  0  0  0
    7.4367   -0.1301   -0.3478 C   0  0  0  0  0  0  0  0  0  0  0  0
    6.6368    0.7899    0.3707 C   0  0  0  0  0  0  0  0  0  0  0  0
    6.8930    2.1692    0.1850 C   0  0  0  0  0  0  0  0  0  0  0  0
    7.9216    2.5604   -0.6768 C   0  0  0  0  0  0  0  0  0  0  0  0
    5.7058    0.3423    1.3466 N   0  0  0  0  0  0  0  0  0  0  0  0
    5.1650   -1.0421    1.2071 C   0  0  0  0  0  0  0  0  0  0  0  0
    3.9869   -1.1155    0.2211 C   0  0  0  0  0  0  0  0  0  0  0  0
    2.8702   -0.1432    0.6425 C   0  0  0  0  0  0  0  0  0  0  0  0
    3.4277    1.2810    0.8133 C   0  0  0  0  0  0  0  0  0  0  0  0
    4.6289    1.2871    1.7699 C   0  0  0  0  0  0  0  0  0  0  0  0
    1.7871   -0.1301   -0.4387 C   0  0  0  0  0  0  0  0  0  0  0  0
    1.7829    0.6545   -1.3766 O   0  0  0  0  0  0  0  0  0  0  0  0
    0.7482   -1.0598   -0.3375 N   0  0  0  0  0  0  0  0  0  0  0  0
    0.6458   -2.1119    0.7039 C   0  0  0  0  0  0  0  0  0  0  0  0
   -0.8311   -2.4453    0.9951 C   0  0  0  0  0  0  0  0  0  0  0  0
   -1.5287   -2.9258   -0.2268 N   0  0  0  0  0  0  0  0  0  0  0  0
   -0.9247   -2.4824   -1.5076 C   0  0  0  0  0  0  0  0  0  0  0  0
   -0.2938   -1.0839   -1.4040 C   0  0  0  0  0  0  0  0  0  0  0  0
   -3.2411   -3.0941   -0.1415 S   0  0  0  0  0  0  0  0  0  0  0  0
   -3.5124   -3.9089    1.0214 O   0  0  0  0  0  0  0  0  0  0  0  0
   -3.6614   -3.4873   -1.4706 O   0  0  0  0  0  0  0  0  0  0  0  0
   -3.8386   -1.4893    0.1654 C   0  0  0  0  0  0  0  0  0  0  0  0
   -4.0731   -0.6192   -0.8706 C   0  0  0  0  0  0  0  0  0  0  0  0
   -4.5567    0.7002   -0.6127 C   0  0  0  0  0  0  0  0  0  0  0  0
   -4.8060    1.0937    0.7309 C   0  0  0  0  0  0  0  0  0  0  0  0
   -4.5761    0.1568    1.7874 C   0  0  0  0  0  0  0  0  0  0  0  0
   -4.1093   -1.1033    1.5077 C   0  0  0  0  0  0  0  0  0  0  0  0
   -5.2871    2.4156    0.9945 C   0  0  0  0  0  0  0  0  0  0  0  0
   -5.4983    3.2688   -0.0578 C   0  0  0  0  0  0  0  0  0  0  0  0
   -5.2588    2.8927   -1.4112 C   0  0  0  0  0  0  0  0  0  0  0  0
   -4.7973    1.6293   -1.6771 C   0  0  0  0  0  0  0  0  0  0  0  0
   -6.0765    4.8651    0.2390 Cl  0  0  0  0  0  0  0  0  0  0  0  0
    9.0835   -0.3333   -1.7536 H   0  0  0  0  0  0  0  0  0  0  0  0
    7.2861   -1.2011   -0.2453 H   0  0  0  0  0  0  0  0  0  0  0  0
    6.3080    2.9214    0.7074 H   0  0  0  0  0  0  0  0  0  0  0  0
    8.1466    3.6215   -0.8388 H   0  0  0  0  0  0  0  0  0  0  0  0
    4.8500   -1.3748    2.2217 H   0  0  0  0  0  0  0  0  0  0  0  0
    5.9778   -1.7352    0.8915 H   0  0  0  0  0  0  0  0  0  0  0  0
    3.6042   -2.1502    0.1613 H   0  0  0  0  0  0  0  0  0  0  0  0
    4.3392   -0.8594   -0.8015 H   0  0  0  0  0  0  0  0  0  0  0  0
    2.4376   -0.4783    1.6193 H   0  0  0  0  0  0  0  0  0  0  0  0
    2.6387    1.9624    1.1821 H   0  0  0  0  0  0  0  0  0  0  0  0
    3.7214    1.6849   -0.1818 H   0  0  0  0  0  0  0  0  0  0  0  0
    5.0452    2.3162    1.8613 H   0  0  0  0  0  0  0  0  0  0  0  0
    4.3173    0.9875    2.7959 H   0  0  0  0  0  0  0  0  0  0  0  0
    1.1807   -3.0298    0.3629 H   0  0  0  0  0  0  0  0  0  0  0  0
    1.1425   -1.7665    1.6405 H   0  0  0  0  0  0  0  0  0  0  0  0
   -0.8852   -3.2634    1.7550 H   0  0  0  0  0  0  0  0  0  0  0  0
   -1.3301   -1.5479    1.4300 H   0  0  0  0  0  0  0  0  0  0  0  0
   -1.6772   -2.5141   -2.3302 H   0  0  0  0  0  0  0  0  0  0  0  0
   -0.1464   -3.2342   -1.7880 H   0  0  0  0  0  0  0  0  0  0  0  0
   -1.0602   -0.3106   -1.1716 H   0  0  0  0  0  0  0  0  0  0  0  0
    0.1705   -0.7846   -2.3755 H   0  0  0  0  0  0  0  0  0  0  0  0
   -3.9064   -0.9209   -1.9116 H   0  0  0  0  0  0  0  0  0  0  0  0
   -4.7883    0.4600    2.8126 H   0  0  0  0  0  0  0  0  0  0  0  0
   -3.9573   -1.8338    2.3113 H   0  0  0  0  0  0  0  0  0  0  0  0
   -5.4789    2.7208    2.0235 H   0  0  0  0  0  0  0  0  0  0  0  0
   -5.4466    3.6134   -2.2084 H   0  0  0  0  0  0  0  0  0  0  0  0
   -4.6072    1.3117   -2.7041 H   0  0  0  0  0  0  0  0  0  0  0  0
  1  2  2  0  0  0  0
  1  6  1  0  0  0  0
  2  3  1  0  0  0  0
  3 36  1  0  0  0  0
  3  4  2  0  0  0  0
  4  7  1  0  0  0  0
  5  4  1  0  0  0  0
  5 37  1  0  0  0  0
  6  5  2  0  0  0  0
  7 12  1  0  0  0  0
  8  7  1  0  0  0  0
  8 39  1  0  0  0  0
  9 10  1  0  0  0  0
  9  8  1  0  0  0  0
 10 11  1  0  0  0  0
 10 43  1  0  0  0  0
 11 44  1  0  0  0  0
 11 12  1  0  0  0  0
 12 46  1  0  0  0  0
 12 47  1  0  0  0  0
 13 15  1  0  0  0  0
 13 10  1  0  0  0  0
 14 13  2  0  0  0  0
 15 16  1  0  0  0  0
 16 17  1  0  0  0  0
 16 49  1  0  0  0  0
 17 51  1  0  0  0  0
 17 50  1  0  0  0  0
 18 21  1  0  0  0  0
 18 17  1  0  0  0  0
 19 20  1  0  0  0  0
 19 18  1  0  0  0  0
 20 54  1  0  0  0  0
 20 15  1  0  0  0  0
 21 24  1  0  0  0  0
 21 22  2  0  0  0  0
 23 21  2  0  0  0  0
 24 29  2  0  0  0  0
 25 26  2  0  0  0  0
 25 24  1  0  0  0  0
 26 27  1  0  0  0  0
 27 30  1  0  0  0  0
 27 28  2  0  0  0  0
 28 57  1  0  0  0  0
 29 28  1  0  0  0  0
 29 58  1  0  0  0  0
 30 59  1  0  0  0  0
 31 34  1  0  0  0  0
 31 30  2  0  0  0  0
 32 31  1  0  0  0  0
 33 32  2  0  0  0  0
 33 26  1  0  0  0  0
 35  2  1  0  0  0  0
 38  6  1  0  0  0  0
 40  8  1  0  0  0  0
 41  9  1  0  0  0  0
 42  9  1  0  0  0  0
 45 11  1  0  0  0  0
 48 16  1  0  0  0  0
 52 19  1  0  0  0  0
 53 19  1  0  0  0  0
 55 20  1  0  0  0  0
 56 25  1  0  0  0  0
 60 32  1  0  0  0  0
 61 33  1  0  0  0  0
M  END
