omegapdb_1v2k_17.log
 OpenBabel10161801213D
Gaussian 16 # PM6 Opt
 61 65  0  0  0  0  0  0  0  0999 V2000
   -5.2969    1.2815   -3.4921 N   0  0  0  0  0  0  0  0  0  0  0  0
   -4.5506    2.2594   -2.9116 C   0  0  0  0  0  0  0  0  0  0  0  0
   -4.4260    2.4123   -1.5276 C   0  0  0  0  0  0  0  0  0  0  0  0
   -5.1186    1.5234   -0.6709 C   0  0  0  0  0  0  0  0  0  0  0  0
   -5.8944    0.5030   -1.2709 C   0  0  0  0  0  0  0  0  0  0  0  0
   -5.9580    0.4267   -2.6652 C   0  0  0  0  0  0  0  0  0  0  0  0
   -5.1331    1.7260    0.7342 N   0  0  0  0  0  0  0  0  0  0  0  0
   -3.9966    2.4851    1.3364 C   0  0  0  0  0  0  0  0  0  0  0  0
   -2.7558    1.6004    1.5425 C   0  0  0  0  0  0  0  0  0  0  0  0
   -3.1111    0.3664    2.3858 C   0  0  0  0  0  0  0  0  0  0  0  0
   -4.3232   -0.3942    1.8247 C   0  0  0  0  0  0  0  0  0  0  0  0
   -5.5035    0.5674    1.6009 C   0  0  0  0  0  0  0  0  0  0  0  0
   -1.9110   -0.5574    2.6067 C   0  0  0  0  0  0  0  0  0  0  0  0
   -1.5076   -0.7646    3.7469 O   0  0  0  0  0  0  0  0  0  0  0  0
   -1.2366   -1.1702    1.5514 N   0  0  0  0  0  0  0  0  0  0  0  0
   -0.1136   -2.0944    1.8921 C   0  0  0  0  0  0  0  0  0  0  0  0
    0.0246   -3.1905    0.8234 C   0  0  0  0  0  0  0  0  0  0  0  0
    0.2722   -2.6292   -0.5277 N   0  0  0  0  0  0  0  0  0  0  0  0
   -0.3759   -1.3160   -0.7843 C   0  0  0  0  0  0  0  0  0  0  0  0
   -1.6097   -1.1079    0.1164 C   0  0  0  0  0  0  0  0  0  0  0  0
    1.8042   -2.9108   -1.2633 S   0  0  0  0  0  0  0  0  0  0  0  0
    2.2629   -4.1794   -0.7388 O   0  0  0  0  0  0  0  0  0  0  0  0
    1.6298   -2.6877   -2.6817 O   0  0  0  0  0  0  0  0  0  0  0  0
    2.8355   -1.6454   -0.6588 C   0  0  0  0  0  0  0  0  0  0  0  0
    3.1161   -0.5480   -1.4350 C   0  0  0  0  0  0  0  0  0  0  0  0
    3.9566    0.4948   -0.9378 C   0  0  0  0  0  0  0  0  0  0  0  0
    4.5067    0.3741    0.3678 C   0  0  0  0  0  0  0  0  0  0  0  0
    4.2159   -0.7923    1.1435 C   0  0  0  0  0  0  0  0  0  0  0  0
    3.4058   -1.7782    0.6373 C   0  0  0  0  0  0  0  0  0  0  0  0
    5.3436    1.4196    0.8731 C   0  0  0  0  0  0  0  0  0  0  0  0
    5.5981    2.5093    0.0809 C   0  0  0  0  0  0  0  0  0  0  0  0
    5.0629    2.6457   -1.2327 C   0  0  0  0  0  0  0  0  0  0  0  0
    4.2579    1.6521   -1.7275 C   0  0  0  0  0  0  0  0  0  0  0  0
    6.6022    3.7799    0.6715 Cl  0  0  0  0  0  0  0  0  0  0  0  0
   -4.0346    2.9384   -3.6015 H   0  0  0  0  0  0  0  0  0  0  0  0
   -3.8238    3.2216   -1.1241 H   0  0  0  0  0  0  0  0  0  0  0  0
   -6.4540   -0.2037   -0.6640 H   0  0  0  0  0  0  0  0  0  0  0  0
   -6.5564   -0.3483   -3.1601 H   0  0  0  0  0  0  0  0  0  0  0  0
   -3.7499    3.3649    0.7007 H   0  0  0  0  0  0  0  0  0  0  0  0
   -4.3518    2.8967    2.3088 H   0  0  0  0  0  0  0  0  0  0  0  0
   -2.3489    1.2926    0.5527 H   0  0  0  0  0  0  0  0  0  0  0  0
   -1.9526    2.1798    2.0372 H   0  0  0  0  0  0  0  0  0  0  0  0
   -3.3861    0.7286    3.4187 H   0  0  0  0  0  0  0  0  0  0  0  0
   -4.6206   -1.1977    2.5277 H   0  0  0  0  0  0  0  0  0  0  0  0
   -4.0750   -0.9028    0.8742 H   0  0  0  0  0  0  0  0  0  0  0  0
   -6.3699    0.0264    1.1585 H   0  0  0  0  0  0  0  0  0  0  0  0
   -5.8609    0.9823    2.5710 H   0  0  0  0  0  0  0  0  0  0  0  0
    0.8215   -1.4976    1.9844 H   0  0  0  0  0  0  0  0  0  0  0  0
   -0.2990   -2.5442    2.8989 H   0  0  0  0  0  0  0  0  0  0  0  0
    0.8260   -3.9143    1.1041 H   0  0  0  0  0  0  0  0  0  0  0  0
   -0.9148   -3.7937    0.7677 H   0  0  0  0  0  0  0  0  0  0  0  0
    0.3335   -0.4690   -0.6356 H   0  0  0  0  0  0  0  0  0  0  0  0
   -0.6970   -1.3048   -1.8556 H   0  0  0  0  0  0  0  0  0  0  0  0
   -2.3754   -1.8881   -0.1074 H   0  0  0  0  0  0  0  0  0  0  0  0
   -2.0669   -0.1113   -0.1135 H   0  0  0  0  0  0  0  0  0  0  0  0
    2.7083   -0.4570   -2.4507 H   0  0  0  0  0  0  0  0  0  0  0  0
    4.6567   -0.8853    2.1364 H   0  0  0  0  0  0  0  0  0  0  0  0
    3.2059   -2.6845    1.2181 H   0  0  0  0  0  0  0  0  0  0  0  0
    5.7651    1.3315    1.8750 H   0  0  0  0  0  0  0  0  0  0  0  0
    5.3043    3.5328   -1.8195 H   0  0  0  0  0  0  0  0  0  0  0  0
    3.8365    1.7257   -2.7318 H   0  0  0  0  0  0  0  0  0  0  0  0
  1  2  2  0  0  0  0
  1  6  1  0  0  0  0
  2  3  1  0  0  0  0
  3 36  1  0  0  0  0
  3  4  2  0  0  0  0
  4  7  1  0  0  0  0
  5  4  1  0  0  0  0
  5 37  1  0  0  0  0
  6  5  2  0  0  0  0
  7  8  1  0  0  0  0
  7 12  1  0  0  0  0
  8  9  1  0  0  0  0
  8 40  1  0  0  0  0
  9 42  1  0  0  0  0
  9 10  1  0  0  0  0
 10 13  1  0  0  0  0
 10 43  1  0  0  0  0
 11 10  1  0  0  0  0
 11 44  1  0  0  0  0
 12 11  1  0  0  0  0
 12 47  1  0  0  0  0
 13 14  2  0  0  0  0
 15 16  1  0  0  0  0
 15 13  1  0  0  0  0
 16 48  1  0  0  0  0
 16 49  1  0  0  0  0
 17 50  1  0  0  0  0
 17 16  1  0  0  0  0
 18 17  1  0  0  0  0
 19 52  1  0  0  0  0
 19 18  1  0  0  0  0
 19 20  1  0  0  0  0
 20 15  1  0  0  0  0
 21 22  2  0  0  0  0
 21 24  1  0  0  0  0
 21 18  1  0  0  0  0
 23 21  2  0  0  0  0
 24 29  2  0  0  0  0
 25 26  2  0  0  0  0
 25 24  1  0  0  0  0
 26 27  1  0  0  0  0
 27 30  1  0  0  0  0
 27 28  2  0  0  0  0
 28 57  1  0  0  0  0
 29 28  1  0  0  0  0
 29 58  1  0  0  0  0
 30 59  1  0  0  0  0
 31 34  1  0  0  0  0
 31 30  2  0  0  0  0
 32 31  1  0  0  0  0
 33 32  2  0  0  0  0
 33 26  1  0  0  0  0
 35  2  1  0  0  0  0
 38  6  1  0  0  0  0
 39  8  1  0  0  0  0
 41  9  1  0  0  0  0
 45 11  1  0  0  0  0
 46 12  1  0  0  0  0
 51 17  1  0  0  0  0
 53 19  1  0  0  0  0
 54 20  1  0  0  0  0
 55 20  1  0  0  0  0
 56 25  1  0  0  0  0
 60 32  1  0  0  0  0
 61 33  1  0  0  0  0
M  END
