omegacsd_DIAVER_08.log
 OpenBabel10161801213D
Gaussian 16 # PM6 Opt
 35 36  0  0  0  0  0  0  0  0999 V2000
    3.3528   -0.5842    1.5674 N   0  0  0  0  0  0  0  0  0  0  0  0
    3.9585    0.4370    0.8450 C   0  0  0  0  0  0  0  0  0  0  0  0
    3.5845    0.8418   -0.4227 N   0  0  0  0  0  0  0  0  0  0  0  0
    2.5477    0.1506   -1.0064 C   0  0  0  0  0  0  0  0  0  0  0  0
    1.9128   -0.9486   -0.3581 C   0  0  0  0  0  0  0  0  0  0  0  0
    2.3523   -1.2492    0.9414 C   0  0  0  0  0  0  0  0  0  0  0  0
    0.8109   -1.7456   -0.9838 C   0  0  0  0  0  0  0  0  0  0  0  0
   -0.5629   -1.3157   -0.5282 C   0  0  0  0  0  0  0  0  0  0  0  0
   -0.9075    0.0467   -0.5007 C   0  0  0  0  0  0  0  0  0  0  0  0
   -2.1854    0.4365   -0.1031 C   0  0  0  0  0  0  0  0  0  0  0  0
   -3.1459   -0.5444    0.2686 C   0  0  0  0  0  0  0  0  0  0  0  0
   -2.7922   -1.8988    0.2373 C   0  0  0  0  0  0  0  0  0  0  0  0
   -1.5063   -2.2796   -0.1581 C   0  0  0  0  0  0  0  0  0  0  0  0
   -4.4503   -0.3423    0.6640 O   0  0  0  0  0  0  0  0  0  0  0  0
   -4.9083    1.0234    0.8201 C   0  0  0  0  0  0  0  0  0  0  0  0
   -2.6249    1.7489   -0.0450 O   0  0  0  0  0  0  0  0  0  0  0  0
   -1.6455    2.7887   -0.2877 C   0  0  0  0  0  0  0  0  0  0  0  0
    2.1164    0.6540   -2.2369 N   0  0  0  0  0  0  0  0  0  0  0  0
    5.0562    1.0618    1.4161 N   0  0  0  0  0  0  0  0  0  0  0  0
    1.8843   -2.0579    1.5210 H   0  0  0  0  0  0  0  0  0  0  0  0
    0.8523   -1.6867   -2.0933 H   0  0  0  0  0  0  0  0  0  0  0  0
    0.9700   -2.8249   -0.7608 H   0  0  0  0  0  0  0  0  0  0  0  0
   -0.1634    0.7887   -0.7845 H   0  0  0  0  0  0  0  0  0  0  0  0
   -3.5333   -2.6430    0.5274 H   0  0  0  0  0  0  0  0  0  0  0  0
   -1.2508   -3.3371   -0.1717 H   0  0  0  0  0  0  0  0  0  0  0  0
   -4.3041    1.5405    1.5721 H   0  0  0  0  0  0  0  0  0  0  0  0
   -5.9402    0.8777    1.1579 H   0  0  0  0  0  0  0  0  0  0  0  0
   -4.8664    1.5444   -0.1428 H   0  0  0  0  0  0  0  0  0  0  0  0
   -1.2746    2.7282   -1.3149 H   0  0  0  0  0  0  0  0  0  0  0  0
   -2.2427    3.6960   -0.1361 H   0  0  0  0  0  0  0  0  0  0  0  0
   -0.8319    2.7253    0.4413 H   0  0  0  0  0  0  0  0  0  0  0  0
    2.7248    1.3118   -2.7097 H   0  0  0  0  0  0  0  0  0  0  0  0
    1.6038    0.0343   -2.8471 H   0  0  0  0  0  0  0  0  0  0  0  0
    5.2383    0.9146    2.3981 H   0  0  0  0  0  0  0  0  0  0  0  0
    5.3975    1.9172    1.0055 H   0  0  0  0  0  0  0  0  0  0  0  0
  2 19  1  0  0  0  0
  2  1  2  0  0  0  0
  3  2  1  0  0  0  0
  4  3  2  0  0  0  0
  4  5  1  0  0  0  0
  5  6  2  0  0  0  0
  6 20  1  0  0  0  0
  6  1  1  0  0  0  0
  7 22  1  0  0  0  0
  7  8  1  0  0  0  0
  7  5  1  0  0  0  0
  8  9  2  0  0  0  0
  8 13  1  0  0  0  0
  9 10  1  0  0  0  0
 10 16  1  0  0  0  0
 10 11  2  0  0  0  0
 11 14  1  0  0  0  0
 12 11  1  0  0  0  0
 12 24  1  0  0  0  0
 13 12  2  0  0  0  0
 14 15  1  0  0  0  0
 15 27  1  0  0  0  0
 15 26  1  0  0  0  0
 17 30  1  0  0  0  0
 17 16  1  0  0  0  0
 17 31  1  0  0  0  0
 18  4  1  0  0  0  0
 19 34  1  0  0  0  0
 21  7  1  0  0  0  0
 23  9  1  0  0  0  0
 25 13  1  0  0  0  0
 28 15  1  0  0  0  0
 29 17  1  0  0  0  0
 32 18  1  0  0  0  0
 33 18  1  0  0  0  0
 35 19  1  0  0  0  0
M  END
