omegacsd_CEJTIU_16.log
 OpenBabel10161801213D
Gaussian 16 # PM6 Opt
 41 42  0  0  0  0  0  0  0  0999 V2000
   -4.5991   -2.3988   -0.9541 C   0  0  0  0  0  0  0  0  0  0  0  0
   -3.8479   -1.7912    0.1792 N   0  0  0  0  0  0  0  0  0  0  0  0
   -4.6674   -1.7525    1.4218 C   0  0  0  0  0  0  0  0  0  0  0  0
   -3.0844   -0.6268   -0.1170 C   0  0  0  0  0  0  0  0  0  0  0  0
   -2.5733   -0.4153   -1.4212 C   0  0  0  0  0  0  0  0  0  0  0  0
   -1.6940    0.6295   -1.6809 C   0  0  0  0  0  0  0  0  0  0  0  0
   -1.3124    1.5009   -0.6448 C   0  0  0  0  0  0  0  0  0  0  0  0
   -1.8291    1.3218    0.6491 C   0  0  0  0  0  0  0  0  0  0  0  0
   -2.6983    0.2684    0.9100 C   0  0  0  0  0  0  0  0  0  0  0  0
   -0.4159    2.5800   -0.9605 N   0  0  0  0  0  0  0  0  0  0  0  0
    0.6088    3.0951   -0.1508 C   0  0  0  0  0  0  0  0  0  0  0  0
    1.0699    4.1981   -0.3927 O   0  0  0  0  0  0  0  0  0  0  0  0
    1.0984    2.3488    0.9673 N   0  0  0  0  0  0  0  0  0  0  0  0
    1.3554    0.9521    1.1358 C   0  0  0  0  0  0  0  0  0  0  0  0
    1.6119    0.6049    2.2702 O   0  0  0  0  0  0  0  0  0  0  0  0
    1.3157    0.0461   -0.0673 C   0  0  0  0  0  0  0  0  0  0  0  0
    2.5281   -0.8454   -0.1420 C   0  0  0  0  0  0  0  0  0  0  0  0
    2.8806   -1.6627    0.9428 C   0  0  0  0  0  0  0  0  0  0  0  0
    3.9866   -2.5097    0.8473 C   0  0  0  0  0  0  0  0  0  0  0  0
    4.7448   -2.5484   -0.3279 C   0  0  0  0  0  0  0  0  0  0  0  0
    4.3966   -1.7311   -1.4073 C   0  0  0  0  0  0  0  0  0  0  0  0
    3.2917   -0.8790   -1.3180 C   0  0  0  0  0  0  0  0  0  0  0  0
   -5.3902   -1.7500   -1.3614 H   0  0  0  0  0  0  0  0  0  0  0  0
   -3.8986   -2.6555   -1.7685 H   0  0  0  0  0  0  0  0  0  0  0  0
   -5.0594   -3.3449   -0.6233 H   0  0  0  0  0  0  0  0  0  0  0  0
   -5.4670   -0.9956    1.4049 H   0  0  0  0  0  0  0  0  0  0  0  0
   -5.1262   -2.7413    1.5895 H   0  0  0  0  0  0  0  0  0  0  0  0
   -4.0133   -1.5569    2.2904 H   0  0  0  0  0  0  0  0  0  0  0  0
   -2.8538   -1.0823   -2.2355 H   0  0  0  0  0  0  0  0  0  0  0  0
   -1.3039    0.7695   -2.6890 H   0  0  0  0  0  0  0  0  0  0  0  0
   -1.5523    2.0051    1.4538 H   0  0  0  0  0  0  0  0  0  0  0  0
   -3.0734    0.1384    1.9247 H   0  0  0  0  0  0  0  0  0  0  0  0
   -0.6705    3.1601   -1.7685 H   0  0  0  0  0  0  0  0  0  0  0  0
    1.4310    2.9456    1.7475 H   0  0  0  0  0  0  0  0  0  0  0  0
    1.1984    0.6095   -1.0182 H   0  0  0  0  0  0  0  0  0  0  0  0
    0.3957   -0.5890   -0.0001 H   0  0  0  0  0  0  0  0  0  0  0  0
    2.3004   -1.6157    1.8680 H   0  0  0  0  0  0  0  0  0  0  0  0
    4.2596   -3.1396    1.6927 H   0  0  0  0  0  0  0  0  0  0  0  0
    5.6054   -3.2101   -0.3998 H   0  0  0  0  0  0  0  0  0  0  0  0
    4.9882   -1.7548   -2.3209 H   0  0  0  0  0  0  0  0  0  0  0  0
    3.0324   -0.2435   -2.1619 H   0  0  0  0  0  0  0  0  0  0  0  0
  1 25  1  0  0  0  0
  1  2  1  0  0  0  0
  2  3  1  0  0  0  0
  3 27  1  0  0  0  0
  3 28  1  0  0  0  0
  4  2  1  0  0  0  0
  4  9  2  0  0  0  0
  5  4  1  0  0  0  0
  6  5  2  0  0  0  0
  6  7  1  0  0  0  0
  7  8  2  0  0  0  0
  8  9  1  0  0  0  0
  8 31  1  0  0  0  0
  9 32  1  0  0  0  0
 10  7  1  0  0  0  0
 10 11  1  0  0  0  0
 11 13  1  0  0  0  0
 12 11  2  0  0  0  0
 13 14  1  0  0  0  0
 13 34  1  0  0  0  0
 14 15  2  0  0  0  0
 16 36  1  0  0  0  0
 16 14  1  0  0  0  0
 17 16  1  0  0  0  0
 17 18  2  0  0  0  0
 18 37  1  0  0  0  0
 19 18  1  0  0  0  0
 19 38  1  0  0  0  0
 20 19  2  0  0  0  0
 21 22  2  0  0  0  0
 21 20  1  0  0  0  0
 22 17  1  0  0  0  0
 23  1  1  0  0  0  0
 24  1  1  0  0  0  0
 26  3  1  0  0  0  0
 29  5  1  0  0  0  0
 30  6  1  0  0  0  0
 33 10  1  0  0  0  0
 35 16  1  0  0  0  0
 39 20  1  0  0  0  0
 40 21  1  0  0  0  0
 41 22  1  0  0  0  0
M  END
