omegapdb_1gs5_04.log
 OpenBabel10161801213D
Gaussian 16 # PM6 Opt
 24 23  0  0  1  0  0  0  0  0999 V2000
   -0.3381    0.5542    0.8471 C   0  0  2  0  0  0  0  0  0  0  0  0
   -0.1999    1.6522   -0.2403 C   0  0  0  0  0  0  0  0  0  0  0  0
    0.8321    2.0752   -0.6947 O   0  0  0  0  0  0  0  0  0  0  0  0
   -1.3684    2.2015   -0.6703 O   0  0  0  0  0  0  0  0  0  0  0  0
    1.0035    0.3425    1.5781 C   0  0  0  0  0  0  0  0  0  0  0  0
    1.8699   -0.8498    1.1675 C   0  0  0  0  0  0  0  0  0  0  0  0
    2.2141   -0.8365   -0.2955 C   0  0  0  0  0  0  0  0  0  0  0  0
    1.5468   -1.2605   -1.2168 O   0  0  0  0  0  0  0  0  0  0  0  0
    3.4536   -0.3119   -0.5093 O   0  0  0  0  0  0  0  0  0  0  0  0
   -0.9075   -0.6647    0.2425 N   0  0  0  0  0  0  0  0  0  0  0  0
   -2.2918   -0.7504    0.0422 C   0  0  0  0  0  0  0  0  0  0  0  0
   -3.0070    0.1943    0.3648 O   0  0  0  0  0  0  0  0  0  0  0  0
   -2.7887   -2.0296   -0.5470 C   0  0  0  0  0  0  0  0  0  0  0  0
   -1.0820    0.9441    1.6092 H   0  0  0  0  0  0  0  0  0  0  0  0
   -2.2138    1.7951   -0.2787 H   0  0  0  0  0  0  0  0  0  0  0  0
    0.7935    0.2461    2.6659 H   0  0  0  0  0  0  0  0  0  0  0  0
    1.6099    1.2753    1.4690 H   0  0  0  0  0  0  0  0  0  0  0  0
    1.3624   -1.8092    1.4120 H   0  0  0  0  0  0  0  0  0  0  0  0
    2.8063   -0.8386    1.7743 H   0  0  0  0  0  0  0  0  0  0  0  0
    3.6778   -0.2278   -1.4808 H   0  0  0  0  0  0  0  0  0  0  0  0
   -0.2586   -1.2994   -0.2403 H   0  0  0  0  0  0  0  0  0  0  0  0
   -3.8928   -2.0348   -0.5694 H   0  0  0  0  0  0  0  0  0  0  0  0
   -2.4487   -2.1680   -1.5855 H   0  0  0  0  0  0  0  0  0  0  0  0
   -2.4725   -2.9143    0.0240 H   0  0  0  0  0  0  0  0  0  0  0  0
  1  5  1  0  0  0  0
  1 14  1  1  0  0  0
  2  1  1  0  0  0  0
  3  2  2  0  0  0  0
  4 15  1  0  0  0  0
  4  2  1  0  0  0  0
  5 16  1  0  0  0  0
  6 18  1  0  0  0  0
  6  5  1  0  0  0  0
  6 19  1  0  0  0  0
  7  6  1  0  0  0  0
  8  7  2  0  0  0  0
  9  7  1  0  0  0  0
 10  1  1  0  0  0  0
 11 10  1  0  0  0  0
 11 12  2  0  0  0  0
 13 24  1  0  0  0  0
 13 11  1  0  0  0  0
 17  5  1  0  0  0  0
 20  9  1  0  0  0  0
 21 10  1  0  0  0  0
 22 13  1  0  0  0  0
 23 13  1  0  0  0  0
M  END
