omegapdb_1qxw_13.log
 OpenBabel10161801213D
Gaussian 16 # PM6 Opt
 36 36  0  0  1  0  0  0  0  0999 V2000
    4.9568   -0.9916    0.2092 C   0  0  0  0  0  0  0  0  0  0  0  0
    3.9801   -2.0033   -0.3580 C   0  0  0  0  0  0  0  0  0  0  0  0
    3.7176   -0.5056   -0.5274 C   0  0  0  0  0  0  0  0  0  0  0  0
    2.6813    0.1969    0.2301 N   0  0  0  0  0  0  0  0  0  0  0  0
    1.3265    0.0154   -0.3732 C   0  0  0  0  0  0  0  0  0  0  0  0
    0.3580    0.9671    0.3467 C   0  0  0  0  0  0  0  0  0  0  0  0
   -1.0875    1.0548   -0.2335 C   0  0  1  0  0  0  0  0  0  0  0  0
   -0.9491    1.3410   -1.6923 N   0  0  0  0  0  0  0  0  0  0  0  0
   -1.8468   -0.2641   -0.0094 C   0  0  0  0  0  0  0  0  0  0  0  0
   -3.3662   -0.0731   -0.0757 C   0  0  0  0  0  0  0  0  0  0  0  0
   -4.1038   -1.3981    0.1666 C   0  0  0  0  0  0  0  0  0  0  0  0
   -5.6189   -1.2192    0.1077 C   0  0  0  0  0  0  0  0  0  0  0  0
    0.8008    2.3158    0.4044 O   0  0  0  0  0  0  0  0  0  0  0  0
    0.3073    0.5196    1.7095 O   0  0  0  0  0  0  0  0  0  0  0  0
    5.0364   -0.8692    1.2872 H   0  0  0  0  0  0  0  0  0  0  0  0
    5.9324   -0.8643   -0.2546 H   0  0  0  0  0  0  0  0  0  0  0  0
    3.3666   -2.5901    0.3200 H   0  0  0  0  0  0  0  0  0  0  0  0
    4.2624   -2.5995   -1.2210 H   0  0  0  0  0  0  0  0  0  0  0  0
    3.8380   -0.0668   -1.5302 H   0  0  0  0  0  0  0  0  0  0  0  0
    2.6542   -0.1134    1.2130 H   0  0  0  0  0  0  0  0  0  0  0  0
    0.9427   -1.0252   -0.3075 H   0  0  0  0  0  0  0  0  0  0  0  0
    1.3530    0.2776   -1.4579 H   0  0  0  0  0  0  0  0  0  0  0  0
   -1.6058    1.8844    0.3184 H   0  0  0  0  0  0  0  0  0  0  0  0
   -0.5971    2.2871   -1.8295 H   0  0  0  0  0  0  0  0  0  0  0  0
   -1.8491    1.2755   -2.1574 H   0  0  0  0  0  0  0  0  0  0  0  0
   -1.5605   -0.6791    0.9819 H   0  0  0  0  0  0  0  0  0  0  0  0
   -1.5228   -1.0174   -0.7555 H   0  0  0  0  0  0  0  0  0  0  0  0
   -3.6587    0.3395   -1.0600 H   0  0  0  0  0  0  0  0  0  0  0  0
   -3.6889    0.6748    0.6746 H   0  0  0  0  0  0  0  0  0  0  0  0
   -3.7863   -2.1486   -0.5838 H   0  0  0  0  0  0  0  0  0  0  0  0
   -3.8146   -1.8150    1.1516 H   0  0  0  0  0  0  0  0  0  0  0  0
   -5.9725   -0.5101    0.8649 H   0  0  0  0  0  0  0  0  0  0  0  0
   -6.1361   -2.1694    0.2831 H   0  0  0  0  0  0  0  0  0  0  0  0
   -5.9449   -0.8452   -0.8695 H   0  0  0  0  0  0  0  0  0  0  0  0
    1.7907    2.3738    0.4279 H   0  0  0  0  0  0  0  0  0  0  0  0
    0.0769    1.2584    2.3096 H   0  0  0  0  0  0  0  0  0  0  0  0
  1 15  1  0  0  0  0
  2  1  1  0  0  0  0
  2 17  1  0  0  0  0
  3  2  1  0  0  0  0
  3  1  1  0  0  0  0
  3  4  1  0  0  0  0
  4 20  1  0  0  0  0
  5 21  1  0  0  0  0
  5  4  1  0  0  0  0
  5  6  1  0  0  0  0
  6 13  1  0  0  0  0
  6 14  1  0  0  0  0
  7  9  1  0  0  0  0
  7 23  1  1  0  0  0
  7  6  1  0  0  0  0
  8  7  1  0  0  0  0
  9 26  1  0  0  0  0
 10  9  1  0  0  0  0
 10 11  1  0  0  0  0
 10 29  1  0  0  0  0
 11 31  1  0  0  0  0
 12 11  1  0  0  0  0
 12 33  1  0  0  0  0
 12 32  1  0  0  0  0
 13 35  1  0  0  0  0
 14 36  1  0  0  0  0
 16  1  1  0  0  0  0
 18  2  1  0  0  0  0
 19  3  1  0  0  0  0
 22  5  1  0  0  0  0
 24  8  1  0  0  0  0
 25  8  1  0  0  0  0
 27  9  1  0  0  0  0
 28 10  1  0  0  0  0
 30 11  1  0  0  0  0
 34 12  1  0  0  0  0
M  END
