omegacsd_CUHNEY10_11.log
 OpenBabel10161801213D
Gaussian 16 # PM6 Opt
 44 47  0  0  1  0  0  0  0  0999 V2000
   -4.6474   -2.8728   -0.4882 Cl  0  0  0  0  0  0  0  0  0  0  0  0
   -2.9942   -2.4716   -0.3096 C   0  0  0  0  0  0  0  0  0  0  0  0
   -2.4370   -1.4508   -1.0980 C   0  0  0  0  0  0  0  0  0  0  0  0
   -1.1361   -1.0938   -0.9864 N   0  0  0  0  0  0  0  0  0  0  0  0
   -0.3529   -1.7677   -0.0812 C   0  0  0  0  0  0  0  0  0  0  0  0
    1.0121   -1.3668   -0.0444 N   0  0  0  0  0  0  0  0  0  0  0  0
    2.0507   -1.9931    0.7433 C   0  0  0  0  0  0  0  0  0  0  0  0
    1.8765   -2.9070    1.4989 O   0  0  0  0  0  0  0  0  0  0  0  0
    3.3057   -1.2632    0.3449 C   0  0  0  0  0  0  0  0  0  0  0  0
    4.5575   -1.5198    0.7474 N   0  0  0  0  0  0  0  0  0  0  0  0
    5.5167   -0.7100    0.2050 C   0  0  0  0  0  0  0  0  0  0  0  0
    5.2084    0.3119   -0.7175 C   0  0  0  0  0  0  0  0  0  0  0  0
    3.9258    0.5710   -1.1210 N   0  0  0  0  0  0  0  0  0  0  0  0
    2.9880   -0.2168   -0.5792 C   0  0  0  0  0  0  0  0  0  0  0  0
    1.4824   -0.1591   -0.8039 C   0  0  2  0  0  0  0  0  0  0  0  0
    0.9994    0.9762   -0.0561 O   0  0  0  0  0  0  0  0  0  0  0  0
    0.3498    1.9860   -0.7943 C   0  0  0  0  0  0  0  0  0  0  0  0
    0.2485    1.9289   -1.9984 O   0  0  0  0  0  0  0  0  0  0  0  0
    0.0324    3.0550    0.0560 N   0  0  0  0  0  0  0  0  0  0  0  0
   -0.9679    4.0286   -0.4843 C   0  0  0  0  0  0  0  0  0  0  0  0
   -2.2506    4.0842    0.3763 C   0  0  0  0  0  0  0  0  0  0  0  0
   -2.6279    2.8017    1.0327 N   0  0  0  0  0  0  0  0  0  0  0  0
   -1.5169    2.2932    1.8975 C   0  0  0  0  0  0  0  0  0  0  0  0
   -0.1055    2.7946    1.5142 C   0  0  0  0  0  0  0  0  0  0  0  0
   -3.0697    1.7835    0.0345 C   0  0  0  0  0  0  0  0  0  0  0  0
   -0.8558   -2.8046    0.7397 C   0  0  0  0  0  0  0  0  0  0  0  0
   -2.1973   -3.1549    0.6169 C   0  0  0  0  0  0  0  0  0  0  0  0
   -3.0325   -0.9021   -1.8409 H   0  0  0  0  0  0  0  0  0  0  0  0
    6.5477   -0.9043    0.5278 H   0  0  0  0  0  0  0  0  0  0  0  0
    5.9872    0.9498   -1.1561 H   0  0  0  0  0  0  0  0  0  0  0  0
    1.1318   -0.1336   -1.8678 H   0  0  0  0  0  0  0  0  0  0  0  0
   -0.4673    5.0232   -0.5005 H   0  0  0  0  0  0  0  0  0  0  0  0
   -1.2104    3.7799   -1.5438 H   0  0  0  0  0  0  0  0  0  0  0  0
   -3.1037    4.4299   -0.2465 H   0  0  0  0  0  0  0  0  0  0  0  0
   -2.1345    4.8403    1.1856 H   0  0  0  0  0  0  0  0  0  0  0  0
   -1.7559    2.6325    2.9319 H   0  0  0  0  0  0  0  0  0  0  0  0
   -1.5284    1.1832    1.9268 H   0  0  0  0  0  0  0  0  0  0  0  0
    0.1240    3.7525    2.0343 H   0  0  0  0  0  0  0  0  0  0  0  0
    0.6701    2.0619    1.8354 H   0  0  0  0  0  0  0  0  0  0  0  0
   -3.9247    2.1854   -0.5325 H   0  0  0  0  0  0  0  0  0  0  0  0
   -2.2997    1.4636   -0.6845 H   0  0  0  0  0  0  0  0  0  0  0  0
   -3.4325    0.8925    0.5728 H   0  0  0  0  0  0  0  0  0  0  0  0
   -0.2066   -3.3241    1.4534 H   0  0  0  0  0  0  0  0  0  0  0  0
   -2.6222   -3.9509    1.2333 H   0  0  0  0  0  0  0  0  0  0  0  0
  1  2  1  0  0  0  0
  2 27  2  0  0  0  0
  3  4  2  0  0  0  0
  3  2  1  0  0  0  0
  4  5  1  0  0  0  0
  5  6  1  0  0  0  0
  5 26  2  0  0  0  0
  6  7  1  0  0  0  0
  7  8  2  0  0  0  0
  9  7  1  0  0  0  0
  9 10  1  0  0  0  0
 11 29  1  0  0  0  0
 11 10  2  0  0  0  0
 12 11  1  0  0  0  0
 13 12  2  0  0  0  0
 13 14  1  0  0  0  0
 14  9  2  0  0  0  0
 15 31  1  6  0  0  0
 15 14  1  0  0  0  0
 15 16  1  0  0  0  0
 15  6  1  0  0  0  0
 17 16  1  0  0  0  0
 17 19  1  0  0  0  0
 18 17  2  0  0  0  0
 19 24  1  0  0  0  0
 20 19  1  0  0  0  0
 20 21  1  0  0  0  0
 21 22  1  0  0  0  0
 21 35  1  0  0  0  0
 22 23  1  0  0  0  0
 23 37  1  0  0  0  0
 23 36  1  0  0  0  0
 24 39  1  0  0  0  0
 24 23  1  0  0  0  0
 24 38  1  0  0  0  0
 25 42  1  0  0  0  0
 25 22  1  0  0  0  0
 26 43  1  0  0  0  0
 27 26  1  0  0  0  0
 27 44  1  0  0  0  0
 28  3  1  0  0  0  0
 30 12  1  0  0  0  0
 32 20  1  0  0  0  0
 33 20  1  0  0  0  0
 34 21  1  0  0  0  0
 40 25  1  0  0  0  0
 41 25  1  0  0  0  0
M  END
