omegacsd_SPIRIL_15.log
 OpenBabel10161801213D
Gaussian 16 # PM6 Opt
 57 60  0  0  1  0  0  0  0  0999 V2000
   -2.3502   -1.5066   -0.8972 C   0  0  0  0  0  0  0  0  0  0  0  0
   -3.5195   -0.8280   -0.1606 C   0  0  2  0  0  0  0  0  0  0  0  0
   -4.8362   -1.6190   -0.4356 C   0  0  0  0  0  0  0  0  0  0  0  0
   -5.0530   -2.7983   -0.2739 O   0  0  0  0  0  0  0  0  0  0  0  0
   -5.8030   -0.7090   -0.8772 N   0  0  0  0  0  0  0  0  0  0  0  0
   -5.2546    0.6538   -1.0846 C   0  0  0  0  0  0  0  0  0  0  0  0
   -3.7810    0.5168   -0.8000 N   0  0  0  0  0  0  0  0  0  0  0  0
   -3.1173    1.6688   -0.2469 C   0  0  0  0  0  0  0  0  0  0  0  0
   -1.7235    1.7588   -0.4472 C   0  0  0  0  0  0  0  0  0  0  0  0
   -1.0319    2.8844   -0.0051 C   0  0  0  0  0  0  0  0  0  0  0  0
   -1.7107    3.9308    0.6313 C   0  0  0  0  0  0  0  0  0  0  0  0
   -3.0915    3.8436    0.8243 C   0  0  0  0  0  0  0  0  0  0  0  0
   -3.7994    2.7186    0.3938 C   0  0  0  0  0  0  0  0  0  0  0  0
   -3.3047   -0.7972    1.3675 C   0  0  0  0  0  0  0  0  0  0  0  0
   -1.8242   -0.8616    1.7636 C   0  0  0  0  0  0  0  0  0  0  0  0
   -1.1655   -2.1158    1.2706 N   0  0  0  0  0  0  0  0  0  0  0  0
    0.3193   -1.9856    1.2433 C   0  0  0  0  0  0  0  0  0  0  0  0
    0.8994   -0.9574    0.2526 C   0  0  0  0  0  0  0  0  0  0  0  0
    2.3872   -0.8474    0.3552 C   0  0  0  0  0  0  0  0  0  0  0  0
    3.1422   -0.1168   -0.4816 C   0  0  0  0  0  0  0  0  0  0  0  0
    4.6139   -0.0535   -0.3079 C   0  0  0  0  0  0  0  0  0  0  0  0
    5.3926   -1.2092   -0.4851 C   0  0  0  0  0  0  0  0  0  0  0  0
    6.7797   -1.1604   -0.3283 C   0  0  0  0  0  0  0  0  0  0  0  0
    7.3571    0.0664    0.0106 C   0  0  0  0  0  0  0  0  0  0  0  0
    6.6137    1.2358    0.1966 C   0  0  0  0  0  0  0  0  0  0  0  0
    5.2291    1.1634    0.0311 C   0  0  0  0  0  0  0  0  0  0  0  0
    8.6822    0.1249    0.1641 F   0  0  0  0  0  0  0  0  0  0  0  0
    2.5882    0.6694   -1.6277 C   0  0  0  0  0  0  0  0  0  0  0  0
   -1.7477   -2.6090   -0.0126 C   0  0  0  0  0  0  0  0  0  0  0  0
   -2.6888   -1.9263   -1.8631 H   0  0  0  0  0  0  0  0  0  0  0  0
   -1.5815   -0.7486   -1.1597 H   0  0  0  0  0  0  0  0  0  0  0  0
   -6.7067   -0.9706   -1.2442 H   0  0  0  0  0  0  0  0  0  0  0  0
   -5.7782    1.3813   -0.4176 H   0  0  0  0  0  0  0  0  0  0  0  0
   -5.3614    0.9873   -2.1448 H   0  0  0  0  0  0  0  0  0  0  0  0
   -1.2026    0.9470   -0.9611 H   0  0  0  0  0  0  0  0  0  0  0  0
    0.0446    2.9537   -0.1605 H   0  0  0  0  0  0  0  0  0  0  0  0
   -1.1648    4.8078    0.9714 H   0  0  0  0  0  0  0  0  0  0  0  0
   -3.6237    4.6563    1.3187 H   0  0  0  0  0  0  0  0  0  0  0  0
   -4.8739    2.6618    0.5605 H   0  0  0  0  0  0  0  0  0  0  0  0
   -3.8275   -1.6674    1.8279 H   0  0  0  0  0  0  0  0  0  0  0  0
   -3.7709    0.1006    1.8148 H   0  0  0  0  0  0  0  0  0  0  0  0
   -1.3033    0.0611    1.4229 H   0  0  0  0  0  0  0  0  0  0  0  0
   -1.7408   -0.8859    2.8747 H   0  0  0  0  0  0  0  0  0  0  0  0
    0.6466   -1.7394    2.2787 H   0  0  0  0  0  0  0  0  0  0  0  0
    0.7339   -2.9953    1.0247 H   0  0  0  0  0  0  0  0  0  0  0  0
    0.4410    0.0395    0.4375 H   0  0  0  0  0  0  0  0  0  0  0  0
    0.6098   -1.2316   -0.7835 H   0  0  0  0  0  0  0  0  0  0  0  0
    2.8486   -1.3989    1.1761 H   0  0  0  0  0  0  0  0  0  0  0  0
    4.9104   -2.1506   -0.7497 H   0  0  0  0  0  0  0  0  0  0  0  0
    7.3880   -2.0527   -0.4664 H   0  0  0  0  0  0  0  0  0  0  0  0
    7.0955    2.1749    0.4628 H   0  0  0  0  0  0  0  0  0  0  0  0
    4.6199    2.0564    0.1703 H   0  0  0  0  0  0  0  0  0  0  0  0
    2.0749    0.0120   -2.3445 H   0  0  0  0  0  0  0  0  0  0  0  0
    1.8585    1.4161   -1.2867 H   0  0  0  0  0  0  0  0  0  0  0  0
    3.3673    1.2037   -2.1876 H   0  0  0  0  0  0  0  0  0  0  0  0
   -2.5532   -3.3322    0.2749 H   0  0  0  0  0  0  0  0  0  0  0  0
   -0.9984   -3.1929   -0.5840 H   0  0  0  0  0  0  0  0  0  0  0  0
  1 29  1  0  0  0  0
  2  1  1  6  0  0  0
  2 14  1  0  0  0  0
  3  4  2  0  0  0  0
  3  2  1  0  0  0  0
  5  3  1  0  0  0  0
  6  5  1  0  0  0  0
  6  7  1  0  0  0  0
  6 33  1  0  0  0  0
  7  8  1  0  0  0  0
  7  2  1  0  0  0  0
  8 13  1  0  0  0  0
  9  8  2  0  0  0  0
  9 10  1  0  0  0  0
 10 11  2  0  0  0  0
 11 12  1  0  0  0  0
 11 37  1  0  0  0  0
 12 38  1  0  0  0  0
 13 39  1  0  0  0  0
 13 12  2  0  0  0  0
 14 15  1  0  0  0  0
 14 41  1  0  0  0  0
 14 40  1  0  0  0  0
 15 43  1  0  0  0  0
 16 15  1  0  0  0  0
 17 16  1  0  0  0  0
 17 44  1  0  0  0  0
 18 19  1  0  0  0  0
 18 46  1  0  0  0  0
 18 17  1  0  0  0  0
 19 48  1  0  0  0  0
 20 21  1  0  0  0  0
 20 19  2  0  0  0  0
 21 26  2  0  0  0  0
 22 23  2  0  0  0  0
 22 21  1  0  0  0  0
 23 24  1  0  0  0  0
 24 27  1  0  0  0  0
 24 25  2  0  0  0  0
 25 51  1  0  0  0  0
 26 52  1  0  0  0  0
 26 25  1  0  0  0  0
 28 54  1  0  0  0  0
 28 20  1  0  0  0  0
 29 56  1  0  0  0  0
 29 16  1  0  0  0  0
 30  1  1  0  0  0  0
 31  1  1  0  0  0  0
 32  5  1  0  0  0  0
 34  6  1  0  0  0  0
 35  9  1  0  0  0  0
 36 10  1  0  0  0  0
 42 15  1  0  0  0  0
 45 17  1  0  0  0  0
 47 18  1  0  0  0  0
 49 22  1  0  0  0  0
 50 23  1  0  0  0  0
 53 28  1  0  0  0  0
 55 28  1  0  0  0  0
 57 29  1  0  0  0  0
M  END
