omegapdb_1xom_16.log
 OpenBabel10161801213D
Gaussian 16 # PM6 Opt
 50 52  0  0  1  0  0  0  0  0999 V2000
   -5.3649   -1.4969    0.6991 O   0  0  0  0  0  0  0  0  0  0  0  0
   -5.7110   -0.2917    0.1312 C   0  0  0  0  0  0  0  0  0  0  0  0
   -6.8622    0.0738    0.1713 O   0  0  0  0  0  0  0  0  0  0  0  0
   -4.5144    0.4207   -0.4700 C   0  0  1  0  0  0  0  0  0  0  0  0
   -3.6174    0.9641    0.6605 C   0  0  0  0  0  0  0  0  0  0  0  0
   -2.5570   -0.0571    1.0756 C   0  0  0  0  0  0  0  0  0  0  0  0
   -1.5802   -0.3861   -0.0915 C   0  0  2  0  0  0  0  0  0  0  0  0
   -2.2601   -0.1709   -1.4748 C   0  0  0  0  0  0  0  0  0  0  0  0
   -3.7494   -0.5150   -1.4284 C   0  0  0  0  0  0  0  0  0  0  0  0
   -1.2458   -1.8203    0.0328 C   0  0  0  0  0  0  0  0  0  0  0  0
   -1.0066   -2.9461    0.1279 N   0  0  0  0  0  0  0  0  0  0  0  0
   -0.3190    0.4746   -0.0289 C   0  0  0  0  0  0  0  0  0  0  0  0
   -0.4321    1.8454    0.1788 C   0  0  0  0  0  0  0  0  0  0  0  0
    0.7071    2.6720    0.2276 C   0  0  0  0  0  0  0  0  0  0  0  0
    1.9648    2.1129    0.0616 C   0  0  0  0  0  0  0  0  0  0  0  0
    3.1731    2.7698    0.0808 O   0  0  0  0  0  0  0  0  0  0  0  0
    3.1409    4.1988    0.3177 C   0  0  0  0  0  0  0  0  0  0  0  0
    2.0924    0.6991   -0.1641 C   0  0  0  0  0  0  0  0  0  0  0  0
    0.9587   -0.1007   -0.2128 C   0  0  0  0  0  0  0  0  0  0  0  0
    3.3867    0.2885   -0.3190 O   0  0  0  0  0  0  0  0  0  0  0  0
    3.6623   -1.1348   -0.5656 C   0  0  0  0  0  0  0  0  0  0  0  0
    3.5031   -1.9491    0.7265 C   0  0  0  0  0  0  0  0  0  0  0  0
    4.8099   -2.7414    0.8905 C   0  0  0  0  0  0  0  0  0  0  0  0
    5.8881   -1.9808    0.0950 C   0  0  0  0  0  0  0  0  0  0  0  0
    5.1529   -1.1138   -0.9407 C   0  0  0  0  0  0  0  0  0  0  0  0
   -6.1454   -1.9681    1.0989 H   0  0  0  0  0  0  0  0  0  0  0  0
   -4.9179    1.2911   -1.0524 H   0  0  0  0  0  0  0  0  0  0  0  0
   -4.2274    1.2553    1.5381 H   0  0  0  0  0  0  0  0  0  0  0  0
   -3.1234    1.9000    0.3169 H   0  0  0  0  0  0  0  0  0  0  0  0
   -3.0743   -0.9843    1.4121 H   0  0  0  0  0  0  0  0  0  0  0  0
   -1.9884    0.3044    1.9531 H   0  0  0  0  0  0  0  0  0  0  0  0
   -1.7491   -0.7796   -2.2463 H   0  0  0  0  0  0  0  0  0  0  0  0
   -2.1218    0.8810   -1.7960 H   0  0  0  0  0  0  0  0  0  0  0  0
   -3.8721   -1.5734   -1.1082 H   0  0  0  0  0  0  0  0  0  0  0  0
   -4.1869   -0.4528   -2.4428 H   0  0  0  0  0  0  0  0  0  0  0  0
   -1.4139    2.3065    0.3075 H   0  0  0  0  0  0  0  0  0  0  0  0
    0.5813    3.7377    0.3955 H   0  0  0  0  0  0  0  0  0  0  0  0
    2.5987    4.7073   -0.4840 H   0  0  0  0  0  0  0  0  0  0  0  0
    2.7165    4.4144    1.3020 H   0  0  0  0  0  0  0  0  0  0  0  0
    4.2102    4.4481    0.2884 H   0  0  0  0  0  0  0  0  0  0  0  0
    1.0612   -1.1688   -0.3915 H   0  0  0  0  0  0  0  0  0  0  0  0
    3.0072   -1.4740   -1.3889 H   0  0  0  0  0  0  0  0  0  0  0  0
    3.3493   -1.2632    1.5825 H   0  0  0  0  0  0  0  0  0  0  0  0
    2.6242   -2.6134    0.6988 H   0  0  0  0  0  0  0  0  0  0  0  0
    5.0883   -2.8420    1.9523 H   0  0  0  0  0  0  0  0  0  0  0  0
    4.6913   -3.7681    0.5010 H   0  0  0  0  0  0  0  0  0  0  0  0
    6.4876   -1.3447    0.7707 H   0  0  0  0  0  0  0  0  0  0  0  0
    6.5941   -2.6748   -0.3889 H   0  0  0  0  0  0  0  0  0  0  0  0
    5.5261   -0.0684   -0.9283 H   0  0  0  0  0  0  0  0  0  0  0  0
    5.3060   -1.4848   -1.9668 H   0  0  0  0  0  0  0  0  0  0  0  0
  1 26  1  0  0  0  0
  2  3  2  0  0  0  0
  2  1  1  0  0  0  0
  4 27  1  6  0  0  0
  4  2  1  0  0  0  0
  4  5  1  0  0  0  0
  5  6  1  0  0  0  0
  5 28  1  0  0  0  0
  6 30  1  0  0  0  0
  6 31  1  0  0  0  0
  7 12  1  1  0  0  0
  7 10  1  0  0  0  0
  7  6  1  0  0  0  0
  8  9  1  0  0  0  0
  8  7  1  0  0  0  0
  9 34  1  0  0  0  0
  9  4  1  0  0  0  0
 10 11  3  0  0  0  0
 12 13  2  0  0  0  0
 13 14  1  0  0  0  0
 13 36  1  0  0  0  0
 14 37  1  0  0  0  0
 15 16  1  0  0  0  0
 15 14  2  0  0  0  0
 16 17  1  0  0  0  0
 17 39  1  0  0  0  0
 18 15  1  0  0  0  0
 19 18  2  0  0  0  0
 19 12  1  0  0  0  0
 20 18  1  0  0  0  0
 21 20  1  0  0  0  0
 21 22  1  0  0  0  0
 22 23  1  0  0  0  0
 22 43  1  0  0  0  0
 23 45  1  0  0  0  0
 24 47  1  0  0  0  0
 24 23  1  0  0  0  0
 25 49  1  0  0  0  0
 25 21  1  0  0  0  0
 25 24  1  0  0  0  0
 29  5  1  0  0  0  0
 32  8  1  0  0  0  0
 33  8  1  0  0  0  0
 35  9  1  0  0  0  0
 38 17  1  0  0  0  0
 40 17  1  0  0  0  0
 41 19  1  0  0  0  0
 42 21  1  0  0  0  0
 44 22  1  0  0  0  0
 46 23  1  0  0  0  0
 48 24  1  0  0  0  0
 50 25  1  0  0  0  0
M  END
