omegapdb_1m5f_14.log
 OpenBabel10161801213D
Gaussian 16 # PM6 Opt
 25 25  0  0  1  0  0  0  0  0999 V2000
   -0.2178   -2.2462    0.9483 O   0  0  0  0  0  0  0  0  0  0  0  0
   -1.2711   -2.0935    0.0670 C   0  0  0  0  0  0  0  0  0  0  0  0
   -1.6954   -3.0397   -0.5413 O   0  0  0  0  0  0  0  0  0  0  0  0
   -1.6772   -0.6731    0.0325 C   0  0  0  0  0  0  0  0  0  0  0  0
   -2.8983   -0.2466    0.3867 N   0  0  0  0  0  0  0  0  0  0  0  0
   -2.9393    1.1161    0.2228 O   0  0  0  0  0  0  0  0  0  0  0  0
   -1.6802    1.5463   -0.2554 C   0  0  0  0  0  0  0  0  0  0  0  0
   -0.8558    0.4495   -0.3901 C   0  0  0  0  0  0  0  0  0  0  0  0
    0.5546    0.4046   -0.8352 C   0  0  0  0  0  0  0  0  0  0  0  0
    1.5077    0.2929    0.3767 C   0  0  2  0  0  0  0  0  0  0  0  0
    1.4985    1.5901    1.1140 N   0  0  0  0  0  0  0  0  0  0  0  0
    2.9421    0.0097   -0.0530 C   0  0  0  0  0  0  0  0  0  0  0  0
    3.9654    0.2507    0.5410 O   0  0  0  0  0  0  0  0  0  0  0  0
    2.9844   -0.6591   -1.2521 O   0  0  0  0  0  0  0  0  0  0  0  0
   -1.5487    2.9857   -0.4754 C   0  0  0  0  0  0  0  0  0  0  0  0
    0.0796   -3.1968    1.0162 H   0  0  0  0  0  0  0  0  0  0  0  0
    0.7247   -0.4539   -1.5247 H   0  0  0  0  0  0  0  0  0  0  0  0
    0.8083    1.3154   -1.4239 H   0  0  0  0  0  0  0  0  0  0  0  0
    1.1810   -0.5875    1.0109 H   0  0  0  0  0  0  0  0  0  0  0  0
    2.3211    1.6789    1.7128 H   0  0  0  0  0  0  0  0  0  0  0  0
    0.6763    1.6430    1.7104 H   0  0  0  0  0  0  0  0  0  0  0  0
    3.9156   -0.8703   -1.5391 H   0  0  0  0  0  0  0  0  0  0  0  0
   -0.5542    3.3477   -0.1480 H   0  0  0  0  0  0  0  0  0  0  0  0
   -2.3105    3.5665    0.0709 H   0  0  0  0  0  0  0  0  0  0  0  0
   -1.6502    3.2448   -1.5441 H   0  0  0  0  0  0  0  0  0  0  0  0
  1 16  1  0  0  0  0
  2  1  1  0  0  0  0
  3  2  2  0  0  0  0
  4  2  1  0  0  0  0
  4  5  2  0  0  0  0
  6  5  1  0  0  0  0
  7  6  1  0  0  0  0
  8  7  2  0  0  0  0
  8  4  1  0  0  0  0
  9  8  1  0  0  0  0
  9 10  1  0  0  0  0
 10 19  1  1  0  0  0
 10 11  1  0  0  0  0
 11 21  1  0  0  0  0
 11 20  1  0  0  0  0
 12 10  1  0  0  0  0
 12 13  2  0  0  0  0
 14 12  1  0  0  0  0
 15  7  1  0  0  0  0
 15 23  1  0  0  0  0
 15 24  1  0  0  0  0
 17  9  1  0  0  0  0
 18  9  1  0  0  0  0
 22 14  1  0  0  0  0
 25 15  1  0  0  0  0
M  END
