omegapdb_1z1r_09.log
 OpenBabel10161801213D
Gaussian 16 # PM6 Opt
 66 68  0  0  1  0  0  0  0  0999 V2000
   -0.1336   -1.6887    0.4052 C   0  0  2  0  0  0  0  0  0  0  0  0
   -1.0775   -2.6919   -0.2954 C   0  0  0  0  0  0  0  0  0  0  0  0
   -2.5357   -2.4049   -0.0616 C   0  0  0  0  0  0  0  0  0  0  0  0
   -3.0060   -1.9838    1.1921 C   0  0  0  0  0  0  0  0  0  0  0  0
   -4.3163   -1.5305    1.3398 C   0  0  0  0  0  0  0  0  0  0  0  0
   -5.1592   -1.5348    0.2201 C   0  0  0  0  0  0  0  0  0  0  0  0
   -4.7504   -2.0736   -1.0104 C   0  0  0  0  0  0  0  0  0  0  0  0
   -3.4308   -2.4998   -1.1423 C   0  0  0  0  0  0  0  0  0  0  0  0
   -6.4495   -1.0243    0.2593 O   0  0  0  0  0  0  0  0  0  0  0  0
   -6.5645    0.3271    0.7921 C   0  0  0  0  0  0  0  0  0  0  0  0
   -6.1922    1.3640   -0.2705 C   0  0  0  0  0  0  0  0  0  0  0  0
   -4.6948    1.4532   -0.5882 C   0  0  0  0  0  0  0  0  0  0  0  0
   -3.8606    1.8248    0.6147 C   0  0  0  0  0  0  0  0  0  0  0  0
   -4.2989    2.0345    1.7346 O   0  0  0  0  0  0  0  0  0  0  0  0
   -2.4695    1.9520    0.4515 N   0  0  0  0  0  0  0  0  0  0  0  0
   -1.7010    1.7160   -0.7756 C   0  0  2  0  0  0  0  0  0  0  0  0
   -1.1081    0.2759   -0.8662 C   0  0  0  0  0  0  0  0  0  0  0  0
   -1.0547   -0.2736   -1.9590 O   0  0  0  0  0  0  0  0  0  0  0  0
   -0.5991   -0.2842    0.2903 N   0  0  0  0  0  0  0  0  0  0  0  0
   -0.5493    2.7300   -0.9210 C   0  0  0  0  0  0  0  0  0  0  0  0
    0.4681    2.6547    0.2027 C   0  0  0  0  0  0  0  0  0  0  0  0
    0.1692    2.3300    1.3503 O   0  0  0  0  0  0  0  0  0  0  0  0
    1.7575    3.0611   -0.0991 N   0  0  0  0  0  0  0  0  0  0  0  0
    1.3274   -1.8868   -0.1046 C   0  0  2  0  0  0  0  0  0  0  0  0
    2.0989   -1.7903    1.1109 O   0  0  0  0  0  0  0  0  0  0  0  0
    1.8067   -0.8325   -1.1217 C   0  0  0  0  0  0  0  0  0  0  0  0
    3.2296   -1.0813   -1.4605 N   0  0  0  0  0  0  0  0  0  0  0  0
    4.3170    0.2474   -1.3220 S   0  0  0  0  0  0  0  0  0  0  0  0
    5.2245    0.1295   -2.4424 O   0  0  0  0  0  0  0  0  0  0  0  0
    3.5081    1.4559   -1.1738 O   0  0  0  0  0  0  0  0  0  0  0  0
    5.1489   -0.0485    0.1556 C   0  0  0  0  0  0  0  0  0  0  0  0
    6.5077   -0.3838    0.1262 C   0  0  0  0  0  0  0  0  0  0  0  0
    7.1976   -0.6058    1.3209 C   0  0  0  0  0  0  0  0  0  0  0  0
    6.5276   -0.4916    2.5444 C   0  0  0  0  0  0  0  0  0  0  0  0
    5.1690   -0.1581    2.5742 C   0  0  0  0  0  0  0  0  0  0  0  0
    4.4791    0.0654    1.3794 C   0  0  0  0  0  0  0  0  0  0  0  0
   -0.1095   -1.9193    1.5128 H   0  0  0  0  0  0  0  0  0  0  0  0
   -0.8761   -2.6690   -1.3921 H   0  0  0  0  0  0  0  0  0  0  0  0
   -0.8389   -3.7196    0.0472 H   0  0  0  0  0  0  0  0  0  0  0  0
   -2.3414   -1.9799    2.0550 H   0  0  0  0  0  0  0  0  0  0  0  0
   -4.6741   -1.1619    2.2993 H   0  0  0  0  0  0  0  0  0  0  0  0
   -5.4532   -2.1247   -1.8384 H   0  0  0  0  0  0  0  0  0  0  0  0
   -3.0831   -2.8748   -2.1053 H   0  0  0  0  0  0  0  0  0  0  0  0
   -7.6426    0.3626    1.0372 H   0  0  0  0  0  0  0  0  0  0  0  0
   -5.9645    0.4385    1.7147 H   0  0  0  0  0  0  0  0  0  0  0  0
   -6.5551    2.3562    0.0738 H   0  0  0  0  0  0  0  0  0  0  0  0
   -6.7388    1.1328   -1.2086 H   0  0  0  0  0  0  0  0  0  0  0  0
   -4.5429    2.1977   -1.3980 H   0  0  0  0  0  0  0  0  0  0  0  0
   -4.3428    0.4815   -1.0059 H   0  0  0  0  0  0  0  0  0  0  0  0
   -1.9141    2.2079    1.2894 H   0  0  0  0  0  0  0  0  0  0  0  0
   -2.3700    1.8203   -1.6779 H   0  0  0  0  0  0  0  0  0  0  0  0
   -0.5796    0.2617    1.1625 H   0  0  0  0  0  0  0  0  0  0  0  0
   -0.9680    3.7638   -0.9321 H   0  0  0  0  0  0  0  0  0  0  0  0
   -0.0770    2.5968   -1.9180 H   0  0  0  0  0  0  0  0  0  0  0  0
    2.1258    3.0302   -1.0479 H   0  0  0  0  0  0  0  0  0  0  0  0
    2.4815    2.9173    0.5971 H   0  0  0  0  0  0  0  0  0  0  0  0
    1.4689   -2.9140   -0.5106 H   0  0  0  0  0  0  0  0  0  0  0  0
    3.0300   -2.0503    0.9325 H   0  0  0  0  0  0  0  0  0  0  0  0
    1.1426   -0.8628   -2.0216 H   0  0  0  0  0  0  0  0  0  0  0  0
    1.6812    0.1892   -0.6876 H   0  0  0  0  0  0  0  0  0  0  0  0
    3.3348   -1.6916   -2.2816 H   0  0  0  0  0  0  0  0  0  0  0  0
    7.0335   -0.4688   -0.8328 H   0  0  0  0  0  0  0  0  0  0  0  0
    8.2557   -0.8651    1.2990 H   0  0  0  0  0  0  0  0  0  0  0  0
    7.0663   -0.6632    3.4781 H   0  0  0  0  0  0  0  0  0  0  0  0
    4.6460   -0.0712    3.5273 H   0  0  0  0  0  0  0  0  0  0  0  0
    3.4110    0.3171    1.4128 H   0  0  0  0  0  0  0  0  0  0  0  0
  1 37  1  1  0  0  0
  2  3  1  0  0  0  0
  2 39  1  0  0  0  0
  2  1  1  0  0  0  0
  3  4  2  0  0  0  0
  4  5  1  0  0  0  0
  4 40  1  0  0  0  0
  5 41  1  0  0  0  0
  6  9  1  0  0  0  0
  6  5  2  0  0  0  0
  7  6  1  0  0  0  0
  8  7  2  0  0  0  0
  8  3  1  0  0  0  0
  9 10  1  0  0  0  0
 10 44  1  0  0  0  0
 10 45  1  0  0  0  0
 11 46  1  0  0  0  0
 11 10  1  0  0  0  0
 12 11  1  0  0  0  0
 12 13  1  0  0  0  0
 13 14  2  0  0  0  0
 15 13  1  0  0  0  0
 15 50  1  0  0  0  0
 16 51  1  6  0  0  0
 16 15  1  0  0  0  0
 17 16  1  0  0  0  0
 17 19  1  0  0  0  0
 18 17  2  0  0  0  0
 19  1  1  0  0  0  0
 19 52  1  0  0  0  0
 20 16  1  0  0  0  0
 20 21  1  0  0  0  0
 21 22  2  0  0  0  0
 23 21  1  0  0  0  0
 23 56  1  0  0  0  0
 24 57  1  6  0  0  0
 24  1  1  0  0  0  0
 24 25  1  0  0  0  0
 26 60  1  0  0  0  0
 26 24  1  0  0  0  0
 27 28  1  0  0  0  0
 27 26  1  0  0  0  0
 28 30  2  0  0  0  0
 28 31  1  0  0  0  0
 29 28  2  0  0  0  0
 31 36  1  0  0  0  0
 32 31  2  0  0  0  0
 32 33  1  0  0  0  0
 33 34  2  0  0  0  0
 34 35  1  0  0  0  0
 34 64  1  0  0  0  0
 35 65  1  0  0  0  0
 36 66  1  0  0  0  0
 36 35  2  0  0  0  0
 38  2  1  0  0  0  0
 42  7  1  0  0  0  0
 43  8  1  0  0  0  0
 47 11  1  0  0  0  0
 48 12  1  0  0  0  0
 49 12  1  0  0  0  0
 53 20  1  0  0  0  0
 54 20  1  0  0  0  0
 55 23  1  0  0  0  0
 58 25  1  0  0  0  0
 59 26  1  0  0  0  0
 61 27  1  0  0  0  0
 62 32  1  0  0  0  0
 63 33  1  0  0  0  0
M  END
