omegapdb_1xom_15.log
 OpenBabel10161801213D
Gaussian 16 # PM6 Opt
 50 52  0  0  1  0  0  0  0  0999 V2000
   -5.8417   -2.6268    0.5156 O   0  0  0  0  0  0  0  0  0  0  0  0
   -5.5571   -1.4510   -0.1613 C   0  0  0  0  0  0  0  0  0  0  0  0
   -6.4970   -0.8856   -0.6509 O   0  0  0  0  0  0  0  0  0  0  0  0
   -4.0880   -1.0596   -0.1949 C   0  0  1  0  0  0  0  0  0  0  0  0
   -3.8646    0.0484   -1.2393 C   0  0  0  0  0  0  0  0  0  0  0  0
   -2.3966    0.4768   -1.2792 C   0  0  0  0  0  0  0  0  0  0  0  0
   -1.8693    0.9140    0.1148 C   0  0  2  0  0  0  0  0  0  0  0  0
   -2.1666   -0.1738    1.1838 C   0  0  0  0  0  0  0  0  0  0  0  0
   -3.6427   -0.5814    1.1991 C   0  0  0  0  0  0  0  0  0  0  0  0
   -2.5854    2.1416    0.5160 C   0  0  0  0  0  0  0  0  0  0  0  0
   -3.1673    3.0873    0.8330 N   0  0  0  0  0  0  0  0  0  0  0  0
   -0.3640    1.1618    0.0237 C   0  0  0  0  0  0  0  0  0  0  0  0
    0.1904    2.4348    0.1569 C   0  0  0  0  0  0  0  0  0  0  0  0
    1.5766    2.6275    0.0537 C   0  0  0  0  0  0  0  0  0  0  0  0
    2.4195    1.5467   -0.1909 C   0  0  0  0  0  0  0  0  0  0  0  0
    3.7942    1.6261   -0.3205 O   0  0  0  0  0  0  0  0  0  0  0  0
    4.4099    2.9241   -0.1326 C   0  0  0  0  0  0  0  0  0  0  0  0
    1.8659    0.2393   -0.3302 C   0  0  0  0  0  0  0  0  0  0  0  0
    0.4829    0.0653   -0.2192 C   0  0  0  0  0  0  0  0  0  0  0  0
    2.5259   -0.9255   -0.6150 O   0  0  0  0  0  0  0  0  0  0  0  0
    3.9886   -1.0012   -0.4936 C   0  0  0  0  0  0  0  0  0  0  0  0
    4.2954   -2.3960   -1.0626 C   0  0  0  0  0  0  0  0  0  0  0  0
    5.0039   -3.1871    0.0504 C   0  0  0  0  0  0  0  0  0  0  0  0
    5.3498   -2.1830    1.1676 C   0  0  0  0  0  0  0  0  0  0  0  0
    4.4066   -0.9847    0.9838 C   0  0  0  0  0  0  0  0  0  0  0  0
   -5.0741   -3.0803    0.9216 H   0  0  0  0  0  0  0  0  0  0  0  0
   -3.4842   -1.9546   -0.4905 H   0  0  0  0  0  0  0  0  0  0  0  0
   -4.1854   -0.3014   -2.2409 H   0  0  0  0  0  0  0  0  0  0  0  0
   -4.5200    0.9168   -1.0120 H   0  0  0  0  0  0  0  0  0  0  0  0
   -1.7689   -0.3517   -1.6634 H   0  0  0  0  0  0  0  0  0  0  0  0
   -2.2647    1.3067   -2.0027 H   0  0  0  0  0  0  0  0  0  0  0  0
   -1.8640    0.1968    2.1837 H   0  0  0  0  0  0  0  0  0  0  0  0
   -1.5318   -1.0615    0.9906 H   0  0  0  0  0  0  0  0  0  0  0  0
   -4.2714    0.2766    1.5214 H   0  0  0  0  0  0  0  0  0  0  0  0
   -3.8046   -1.3713    1.9566 H   0  0  0  0  0  0  0  0  0  0  0  0
   -0.4343    3.3092    0.3417 H   0  0  0  0  0  0  0  0  0  0  0  0
    1.9751    3.6339    0.1619 H   0  0  0  0  0  0  0  0  0  0  0  0
    5.4723    2.6863   -0.2728 H   0  0  0  0  0  0  0  0  0  0  0  0
    4.2197    3.2951    0.8784 H   0  0  0  0  0  0  0  0  0  0  0  0
    4.0617    3.6239   -0.8980 H   0  0  0  0  0  0  0  0  0  0  0  0
    0.0835   -0.9434   -0.3297 H   0  0  0  0  0  0  0  0  0  0  0  0
    4.4234   -0.1754   -1.0913 H   0  0  0  0  0  0  0  0  0  0  0  0
    3.3543   -2.8920   -1.3737 H   0  0  0  0  0  0  0  0  0  0  0  0
    4.9178   -2.3217   -1.9690 H   0  0  0  0  0  0  0  0  0  0  0  0
    5.9075   -3.6918   -0.3280 H   0  0  0  0  0  0  0  0  0  0  0  0
    4.3418   -3.9814    0.4382 H   0  0  0  0  0  0  0  0  0  0  0  0
    6.4037   -1.8630    1.0883 H   0  0  0  0  0  0  0  0  0  0  0  0
    5.2367   -2.6363    2.1657 H   0  0  0  0  0  0  0  0  0  0  0  0
    4.8818   -0.0287    1.2581 H   0  0  0  0  0  0  0  0  0  0  0  0
    3.5122   -1.0833    1.6276 H   0  0  0  0  0  0  0  0  0  0  0  0
  1 26  1  0  0  0  0
  2  1  1  0  0  0  0
  3  2  2  0  0  0  0
  4 27  1  6  0  0  0
  4  2  1  0  0  0  0
  4  9  1  0  0  0  0
  5 29  1  0  0  0  0
  5  4  1  0  0  0  0
  6  5  1  0  0  0  0
  6  7  1  0  0  0  0
  7 12  1  6  0  0  0
  7 10  1  0  0  0  0
  7  8  1  0  0  0  0
  8  9  1  0  0  0  0
  8 32  1  0  0  0  0
  9 34  1  0  0  0  0
  9 35  1  0  0  0  0
 10 11  3  0  0  0  0
 12 13  2  0  0  0  0
 13 36  1  0  0  0  0
 14 13  1  0  0  0  0
 14 37  1  0  0  0  0
 15 14  2  0  0  0  0
 16 15  1  0  0  0  0
 16 17  1  0  0  0  0
 17 39  1  0  0  0  0
 18 19  2  0  0  0  0
 18 15  1  0  0  0  0
 19 12  1  0  0  0  0
 20 21  1  0  0  0  0
 20 18  1  0  0  0  0
 21 25  1  0  0  0  0
 22 21  1  0  0  0  0
 22 23  1  0  0  0  0
 23 46  1  0  0  0  0
 23 24  1  0  0  0  0
 24 48  1  0  0  0  0
 25 24  1  0  0  0  0
 25 49  1  0  0  0  0
 25 50  1  0  0  0  0
 28  5  1  0  0  0  0
 30  6  1  0  0  0  0
 31  6  1  0  0  0  0
 33  8  1  0  0  0  0
 38 17  1  0  0  0  0
 40 17  1  0  0  0  0
 41 19  1  0  0  0  0
 42 21  1  0  0  0  0
 43 22  1  0  0  0  0
 44 22  1  0  0  0  0
 45 23  1  0  0  0  0
 47 24  1  0  0  0  0
M  END
