omegapdb_1xom_17.log
 OpenBabel10161801213D
Gaussian 16 # PM6 Opt
 50 52  0  0  1  0  0  0  0  0999 V2000
   -7.0801    0.5106    0.2091 O   0  0  0  0  0  0  0  0  0  0  0  0
   -6.1301   -0.3558   -0.3095 C   0  0  0  0  0  0  0  0  0  0  0  0
   -6.5423   -1.4131   -0.7028 O   0  0  0  0  0  0  0  0  0  0  0  0
   -4.7041    0.1726   -0.3175 C   0  0  1  0  0  0  0  0  0  0  0  0
   -4.1567    0.2257    1.1203 C   0  0  0  0  0  0  0  0  0  0  0  0
   -2.7156    0.7447    1.1304 C   0  0  0  0  0  0  0  0  0  0  0  0
   -1.7795   -0.1097    0.2336 C   0  0  2  0  0  0  0  0  0  0  0  0
   -2.3681   -0.2362   -1.1979 C   0  0  0  0  0  0  0  0  0  0  0  0
   -3.8164   -0.7276   -1.1950 C   0  0  0  0  0  0  0  0  0  0  0  0
   -1.6888   -1.4509    0.8458 C   0  0  0  0  0  0  0  0  0  0  0  0
   -1.6365   -2.4964    1.3325 N   0  0  0  0  0  0  0  0  0  0  0  0
   -0.3806    0.4958    0.1161 C   0  0  0  0  0  0  0  0  0  0  0  0
   -0.1736    1.8704    0.2429 C   0  0  0  0  0  0  0  0  0  0  0  0
    1.1080    2.4208    0.1007 C   0  0  0  0  0  0  0  0  0  0  0  0
    2.1944    1.5971   -0.1847 C   0  0  0  0  0  0  0  0  0  0  0  0
    3.4948    2.0329   -0.3606 O   0  0  0  0  0  0  0  0  0  0  0  0
    3.7727    3.4314   -0.1047 C   0  0  0  0  0  0  0  0  0  0  0  0
    1.9960    0.1915   -0.3289 C   0  0  0  0  0  0  0  0  0  0  0  0
    0.7105   -0.3402   -0.1747 C   0  0  0  0  0  0  0  0  0  0  0  0
    2.9256   -0.7504   -0.6707 O   0  0  0  0  0  0  0  0  0  0  0  0
    4.3619   -0.4709   -0.5240 C   0  0  0  0  0  0  0  0  0  0  0  0
    4.9950   -1.7183   -1.1595 C   0  0  0  0  0  0  0  0  0  0  0  0
    6.0443   -2.2251   -0.1583 C   0  0  0  0  0  0  0  0  0  0  0  0
    5.6500   -1.6569    1.2187 C   0  0  0  0  0  0  0  0  0  0  0  0
    4.7578   -0.4310    0.9596 C   0  0  0  0  0  0  0  0  0  0  0  0
   -6.7394    1.3679    0.5381 H   0  0  0  0  0  0  0  0  0  0  0  0
   -4.7062    1.2038   -0.7527 H   0  0  0  0  0  0  0  0  0  0  0  0
   -4.7903    0.8686    1.7599 H   0  0  0  0  0  0  0  0  0  0  0  0
   -4.1996   -0.7869    1.5773 H   0  0  0  0  0  0  0  0  0  0  0  0
   -2.6932    1.7980    0.7838 H   0  0  0  0  0  0  0  0  0  0  0  0
   -2.3256    0.7578    2.1681 H   0  0  0  0  0  0  0  0  0  0  0  0
   -2.2963    0.7485   -1.7010 H   0  0  0  0  0  0  0  0  0  0  0  0
   -1.7393   -0.9238   -1.7997 H   0  0  0  0  0  0  0  0  0  0  0  0
   -3.8713   -1.7771   -0.8328 H   0  0  0  0  0  0  0  0  0  0  0  0
   -4.2098   -0.7580   -2.2307 H   0  0  0  0  0  0  0  0  0  0  0  0
   -1.0073    2.5404    0.4523 H   0  0  0  0  0  0  0  0  0  0  0  0
    1.2357    3.4950    0.2079 H   0  0  0  0  0  0  0  0  0  0  0  0
    3.5283    3.6881    0.9297 H   0  0  0  0  0  0  0  0  0  0  0  0
    4.8560    3.4758   -0.2768 H   0  0  0  0  0  0  0  0  0  0  0  0
    3.2375    4.0611   -0.8212 H   0  0  0  0  0  0  0  0  0  0  0  0
    0.5906   -1.4202   -0.2873 H   0  0  0  0  0  0  0  0  0  0  0  0
    4.5841    0.4676   -1.0698 H   0  0  0  0  0  0  0  0  0  0  0  0
    4.2071   -2.4817   -1.3321 H   0  0  0  0  0  0  0  0  0  0  0  0
    5.4313   -1.4990   -2.1458 H   0  0  0  0  0  0  0  0  0  0  0  0
    7.0528   -1.8802   -0.4464 H   0  0  0  0  0  0  0  0  0  0  0  0
    6.0845   -3.3266   -0.1416 H   0  0  0  0  0  0  0  0  0  0  0  0
    5.0979   -2.4154    1.8026 H   0  0  0  0  0  0  0  0  0  0  0  0
    6.5387   -1.3917    1.8131 H   0  0  0  0  0  0  0  0  0  0  0  0
    5.2829    0.5099    1.1947 H   0  0  0  0  0  0  0  0  0  0  0  0
    3.8583   -0.4504    1.6014 H   0  0  0  0  0  0  0  0  0  0  0  0
  1 26  1  0  0  0  0
  2  1  1  0  0  0  0
  3  2  2  0  0  0  0
  4 27  1  6  0  0  0
  4  2  1  0  0  0  0
  4  5  1  0  0  0  0
  5  6  1  0  0  0  0
  5 29  1  0  0  0  0
  5 28  1  0  0  0  0
  6 31  1  0  0  0  0
  7 12  1  6  0  0  0
  7 10  1  0  0  0  0
  7  6  1  0  0  0  0
  8  9  1  0  0  0  0
  8  7  1  0  0  0  0
  9 34  1  0  0  0  0
  9  4  1  0  0  0  0
 10 11  3  0  0  0  0
 12 13  1  0  0  0  0
 13 36  1  0  0  0  0
 14 37  1  0  0  0  0
 14 13  2  0  0  0  0
 15 14  1  0  0  0  0
 16 15  1  0  0  0  0
 16 17  1  0  0  0  0
 17 38  1  0  0  0  0
 18 15  2  0  0  0  0
 18 19  1  0  0  0  0
 19 12  2  0  0  0  0
 20 21  1  0  0  0  0
 20 18  1  0  0  0  0
 21 25  1  0  0  0  0
 22 21  1  0  0  0  0
 22 23  1  0  0  0  0
 23 46  1  0  0  0  0
 23 24  1  0  0  0  0
 24 47  1  0  0  0  0
 24 48  1  0  0  0  0
 25 49  1  0  0  0  0
 25 24  1  0  0  0  0
 25 50  1  0  0  0  0
 30  6  1  0  0  0  0
 32  8  1  0  0  0  0
 33  8  1  0  0  0  0
 35  9  1  0  0  0  0
 39 17  1  0  0  0  0
 40 17  1  0  0  0  0
 41 19  1  0  0  0  0
 42 21  1  0  0  0  0
 43 22  1  0  0  0  0
 44 22  1  0  0  0  0
 45 23  1  0  0  0  0
M  END
