omegapdb_2f7p_15.log
 OpenBabel10161801213D
Gaussian 16 # PM6 Opt
 34 35  0  0  1  0  0  0  0  0999 V2000
   -0.9766   -0.0187   -0.8391 C   0  0  1  0  0  0  0  0  0  0  0  0
    0.4302   -0.4116   -0.6419 N   0  0  0  0  0  0  0  0  0  0  0  0
    1.3941    0.7315   -0.6779 C   0  0  0  0  0  0  0  0  0  0  0  0
    2.7594    0.2579   -0.2407 C   0  0  0  0  0  0  0  0  0  0  0  0
    3.3433   -0.8680   -0.8407 C   0  0  0  0  0  0  0  0  0  0  0  0
    4.6146   -1.2908   -0.4453 C   0  0  0  0  0  0  0  0  0  0  0  0
    5.3114   -0.5914    0.5459 C   0  0  0  0  0  0  0  0  0  0  0  0
    4.7313    0.5316    1.1437 C   0  0  0  0  0  0  0  0  0  0  0  0
    3.4573    0.9563    0.7551 C   0  0  0  0  0  0  0  0  0  0  0  0
   -1.8779   -1.2921   -0.7909 C   0  0  1  0  0  0  0  0  0  0  0  0
   -1.5333   -2.1876    0.2680 O   0  0  0  0  0  0  0  0  0  0  0  0
   -3.2967   -0.7471   -0.4691 C   0  0  1  0  0  0  0  0  0  0  0  0
   -4.0864   -1.7107    0.2173 O   0  0  0  0  0  0  0  0  0  0  0  0
   -3.0257    0.4360    0.5119 C   0  0  1  0  0  0  0  0  0  0  0  0
   -2.9327   -0.1088    1.8409 O   0  0  0  0  0  0  0  0  0  0  0  0
   -1.6099    0.9475    0.2025 C   0  0  2  0  0  0  0  0  0  0  0  0
   -1.6525    2.6621   -0.3728 S   0  0  0  0  0  0  0  0  0  0  0  0
   -1.0520    0.4221   -1.8692 H   0  0  0  0  0  0  0  0  0  0  0  0
    0.5479   -0.9626    0.2172 H   0  0  0  0  0  0  0  0  0  0  0  0
    1.4491    1.0949   -1.7327 H   0  0  0  0  0  0  0  0  0  0  0  0
    1.0658    1.6044   -0.0699 H   0  0  0  0  0  0  0  0  0  0  0  0
    2.7954   -1.4134   -1.6106 H   0  0  0  0  0  0  0  0  0  0  0  0
    5.0636   -2.1666   -0.9109 H   0  0  0  0  0  0  0  0  0  0  0  0
    6.3023   -0.9210    0.8510 H   0  0  0  0  0  0  0  0  0  0  0  0
    5.2718    1.0773    1.9152 H   0  0  0  0  0  0  0  0  0  0  0  0
    3.0136    1.8307    1.2270 H   0  0  0  0  0  0  0  0  0  0  0  0
   -1.8001   -1.9227   -1.6973 H   0  0  0  0  0  0  0  0  0  0  0  0
   -1.5394   -1.7016    1.1420 H   0  0  0  0  0  0  0  0  0  0  0  0
   -3.8872   -0.4550   -1.3571 H   0  0  0  0  0  0  0  0  0  0  0  0
   -3.5115   -2.4823    0.5021 H   0  0  0  0  0  0  0  0  0  0  0  0
   -3.8206    1.2061    0.5058 H   0  0  0  0  0  0  0  0  0  0  0  0
   -3.7576   -0.6310    2.0330 H   0  0  0  0  0  0  0  0  0  0  0  0
   -1.0176    0.9592    1.1556 H   0  0  0  0  0  0  0  0  0  0  0  0
   -2.2238    2.4885   -1.5831 H   0  0  0  0  0  0  0  0  0  0  0  0
  1 18  1  6  0  0  0
  1 10  1  0  0  0  0
  1  2  1  0  0  0  0
  1 16  1  0  0  0  0
  2 19  1  0  0  0  0
  3  2  1  0  0  0  0
  3  4  1  0  0  0  0
  3 21  1  0  0  0  0
  4  9  2  0  0  0  0
  5  6  2  0  0  0  0
  5  4  1  0  0  0  0
  6  7  1  0  0  0  0
  7 24  1  0  0  0  0
  7  8  2  0  0  0  0
  8 25  1  0  0  0  0
  9  8  1  0  0  0  0
  9 26  1  0  0  0  0
 10 27  1  6  0  0  0
 10 12  1  0  0  0  0
 10 11  1  0  0  0  0
 11 28  1  0  0  0  0
 12 29  1  6  0  0  0
 12 13  1  0  0  0  0
 12 14  1  0  0  0  0
 13 30  1  0  0  0  0
 14 31  1  6  0  0  0
 14 15  1  0  0  0  0
 15 32  1  0  0  0  0
 16 14  1  0  0  0  0
 16 33  1  1  0  0  0
 17 16  1  0  0  0  0
 20  3  1  0  0  0  0
 22  5  1  0  0  0  0
 23  6  1  0  0  0  0
 34 17  1  0  0  0  0
M  END
