omegapdb_1z1r_05.log
 OpenBabel10161801213D
Gaussian 16 # PM6 Opt Geom=check
 66 68  0  0  1  0  0  0  0  0999 V2000
    0.3694   -2.0866   -0.6537 C   0  0  2  0  0  0  0  0  0  0  0  0
    1.5188   -3.1193   -0.5890 C   0  0  0  0  0  0  0  0  0  0  0  0
    2.8288   -2.3896   -0.7190 C   0  0  0  0  0  0  0  0  0  0  0  0
    3.2442   -1.9120   -1.9755 C   0  0  0  0  0  0  0  0  0  0  0  0
    4.3167   -1.0305   -2.0760 C   0  0  0  0  0  0  0  0  0  0  0  0
    4.9760   -0.6357   -0.8986 C   0  0  0  0  0  0  0  0  0  0  0  0
    4.6535   -1.1909    0.3472 C   0  0  0  0  0  0  0  0  0  0  0  0
    3.5736   -2.0719    0.4267 C   0  0  0  0  0  0  0  0  0  0  0  0
    5.9767    0.3064   -1.0720 O   0  0  0  0  0  0  0  0  0  0  0  0
    6.0046    1.4105   -0.1214 C   0  0  0  0  0  0  0  0  0  0  0  0
    4.8216    2.3511   -0.3425 C   0  0  0  0  0  0  0  0  0  0  0  0
    3.5967    1.9903    0.5044 C   0  0  0  0  0  0  0  0  0  0  0  0
    2.4445    2.9279    0.2201 C   0  0  0  0  0  0  0  0  0  0  0  0
    2.5444    4.0038   -0.3422 O   0  0  0  0  0  0  0  0  0  0  0  0
    1.1607    2.5680    0.6891 N   0  0  0  0  0  0  0  0  0  0  0  0
    0.8115    1.2569    1.2490 C   0  0  2  0  0  0  0  0  0  0  0  0
    0.3453    0.3003    0.1172 C   0  0  0  0  0  0  0  0  0  0  0  0
   -0.2096    0.6779   -0.9068 O   0  0  0  0  0  0  0  0  0  0  0  0
    0.5925   -1.0377    0.3713 N   0  0  0  0  0  0  0  0  0  0  0  0
   -0.3332    1.3660    2.2701 C   0  0  0  0  0  0  0  0  0  0  0  0
   -0.3754    0.1217    3.1371 C   0  0  0  0  0  0  0  0  0  0  0  0
    0.5871   -0.6330    3.2640 O   0  0  0  0  0  0  0  0  0  0  0  0
   -1.5460   -0.0925    3.8561 N   0  0  0  0  0  0  0  0  0  0  0  0
   -1.0392   -2.7077   -0.4118 C   0  0  2  0  0  0  0  0  0  0  0  0
   -1.1173   -3.9912   -1.0579 O   0  0  0  0  0  0  0  0  0  0  0  0
   -2.1340   -1.8817   -1.1297 C   0  0  0  0  0  0  0  0  0  0  0  0
   -3.4161   -1.8495   -0.4085 N   0  0  0  0  0  0  0  0  0  0  0  0
   -3.8975   -0.5222    0.5419 S   0  0  0  0  0  0  0  0  0  0  0  0
   -2.7811   -0.0785    1.3817 O   0  0  0  0  0  0  0  0  0  0  0  0
   -5.0902   -0.9801    1.2299 O   0  0  0  0  0  0  0  0  0  0  0  0
   -4.2693    0.7144   -0.5913 C   0  0  0  0  0  0  0  0  0  0  0  0
   -5.6053    0.9277   -0.9554 C   0  0  0  0  0  0  0  0  0  0  0  0
   -5.9279    1.9300   -1.8728 C   0  0  0  0  0  0  0  0  0  0  0  0
   -4.9134    2.7190   -2.4287 C   0  0  0  0  0  0  0  0  0  0  0  0
   -3.5797    2.5079   -2.0648 C   0  0  0  0  0  0  0  0  0  0  0  0
   -3.2569    1.5059   -1.1447 C   0  0  0  0  0  0  0  0  0  0  0  0
    0.3875   -1.6041   -1.6728 H   0  0  0  0  0  0  0  0  0  0  0  0
    1.4791   -3.7061    0.3485 H   0  0  0  0  0  0  0  0  0  0  0  0
    1.3871   -3.8558   -1.4102 H   0  0  0  0  0  0  0  0  0  0  0  0
    2.7037   -2.2063   -2.8753 H   0  0  0  0  0  0  0  0  0  0  0  0
    4.6362   -0.6245   -3.0338 H   0  0  0  0  0  0  0  0  0  0  0  0
    5.2272   -0.9351    1.2336 H   0  0  0  0  0  0  0  0  0  0  0  0
    3.3001   -2.4941    1.3938 H   0  0  0  0  0  0  0  0  0  0  0  0
    6.9660    1.8831   -0.4055 H   0  0  0  0  0  0  0  0  0  0  0  0
    6.0723    1.0183    0.9053 H   0  0  0  0  0  0  0  0  0  0  0  0
    5.1217    3.4005   -0.1348 H   0  0  0  0  0  0  0  0  0  0  0  0
    4.5467    2.3449   -1.4215 H   0  0  0  0  0  0  0  0  0  0  0  0
    3.3032    0.9373    0.2986 H   0  0  0  0  0  0  0  0  0  0  0  0
    3.8471    2.0371    1.5855 H   0  0  0  0  0  0  0  0  0  0  0  0
    0.3768    3.1345    0.3524 H   0  0  0  0  0  0  0  0  0  0  0  0
    1.7120    0.8214    1.7753 H   0  0  0  0  0  0  0  0  0  0  0  0
    0.9724   -1.3417    1.2784 H   0  0  0  0  0  0  0  0  0  0  0  0
   -0.1957    2.2607    2.9159 H   0  0  0  0  0  0  0  0  0  0  0  0
   -1.3147    1.5135    1.7552 H   0  0  0  0  0  0  0  0  0  0  0  0
   -1.6332   -0.9639    4.3643 H   0  0  0  0  0  0  0  0  0  0  0  0
   -2.4282    0.2584    3.4842 H   0  0  0  0  0  0  0  0  0  0  0  0
   -1.2441   -2.8329    0.6726 H   0  0  0  0  0  0  0  0  0  0  0  0
   -0.6930   -4.6832   -0.5155 H   0  0  0  0  0  0  0  0  0  0  0  0
   -2.3080   -2.3515   -2.1339 H   0  0  0  0  0  0  0  0  0  0  0  0
   -1.7684   -0.8433   -1.3296 H   0  0  0  0  0  0  0  0  0  0  0  0
   -3.8133   -2.7782   -0.2297 H   0  0  0  0  0  0  0  0  0  0  0  0
   -6.4003    0.3136   -0.5162 H   0  0  0  0  0  0  0  0  0  0  0  0
   -6.9666    2.0969   -2.1552 H   0  0  0  0  0  0  0  0  0  0  0  0
   -5.1647    3.5007   -3.1475 H   0  0  0  0  0  0  0  0  0  0  0  0
   -2.7878    3.1196   -2.4984 H   0  0  0  0  0  0  0  0  0  0  0  0
   -2.2020    1.3516   -0.8666 H   0  0  0  0  0  0  0  0  0  0  0  0
  1 37  1  6  0  0  0
  1  2  1  0  0  0  0
  1 24  1  0  0  0  0
  1 19  1  0  0  0  0
  2 38  1  0  0  0  0
  3  2  1  0  0  0  0
  3  8  2  0  0  0  0
  4  3  1  0  0  0  0
  5  4  2  0  0  0  0
  5  6  1  0  0  0  0
  6  7  2  0  0  0  0
  7  8  1  0  0  0  0
  7 42  1  0  0  0  0
  8 43  1  0  0  0  0
  9  6  1  0  0  0  0
  9 10  1  0  0  0  0
 10 45  1  0  0  0  0
 11 46  1  0  0  0  0
 11 10  1  0  0  0  0
 11 12  1  0  0  0  0
 12 49  1  0  0  0  0
 13 12  1  0  0  0  0
 13 15  1  0  0  0  0
 14 13  2  0  0  0  0
 15 16  1  0  0  0  0
 16 51  1  1  0  0  0
 16 20  1  0  0  0  0
 17 19  1  0  0  0  0
 17 16  1  0  0  0  0
 18 17  2  0  0  0  0
 19 52  1  0  0  0  0
 20 53  1  0  0  0  0
 20 21  1  0  0  0  0
 21 22  2  0  0  0  0
 21 23  1  0  0  0  0
 23 55  1  0  0  0  0
 24 57  1  1  0  0  0
 25 58  1  0  0  0  0
 25 24  1  0  0  0  0
 26 24  1  0  0  0  0
 26 27  1  0  0  0  0
 27 61  1  0  0  0  0
 27 28  1  0  0  0  0
 28 30  2  0  0  0  0
 28 29  2  0  0  0  0
 31 28  1  0  0  0  0
 32 31  1  0  0  0  0
 32 62  1  0  0  0  0
 33 32  2  0  0  0  0
 34 35  2  0  0  0  0
 34 33  1  0  0  0  0
 35 36  1  0  0  0  0
 36 66  1  0  0  0  0
 36 31  2  0  0  0  0
 39  2  1  0  0  0  0
 40  4  1  0  0  0  0
 41  5  1  0  0  0  0
 44 10  1  0  0  0  0
 47 11  1  0  0  0  0
 48 12  1  0  0  0  0
 50 15  1  0  0  0  0
 54 20  1  0  0  0  0
 56 23  1  0  0  0  0
 59 26  1  0  0  0  0
 60 26  1  0  0  0  0
 63 33  1  0  0  0  0
 64 34  1  0  0  0  0
 65 35  1  0  0  0  0
M  END
