omegapdb_1v2k_06.log
 OpenBabel10161801213D
Gaussian 16 # PM6 Opt
 61 65  0  0  0  0  0  0  0  0999 V2000
    9.7980    1.4027   -1.1410 N   0  0  0  0  0  0  0  0  0  0  0  0
    9.4634    0.1011   -1.3561 C   0  0  0  0  0  0  0  0  0  0  0  0
    8.3985   -0.5355   -0.7130 C   0  0  0  0  0  0  0  0  0  0  0  0
    7.6216    0.1924    0.2197 C   0  0  0  0  0  0  0  0  0  0  0  0
    7.9611    1.5485    0.4411 C   0  0  0  0  0  0  0  0  0  0  0  0
    9.0447    2.1002   -0.2486 C   0  0  0  0  0  0  0  0  0  0  0  0
    6.6285   -0.4497    1.0058 N   0  0  0  0  0  0  0  0  0  0  0  0
    5.5745    0.4049    1.6280 C   0  0  0  0  0  0  0  0  0  0  0  0
    4.4287    0.7243    0.6532 C   0  0  0  0  0  0  0  0  0  0  0  0
    3.8083   -0.5736    0.1050 C   0  0  0  0  0  0  0  0  0  0  0  0
    4.8966   -1.4706   -0.5131 C   0  0  0  0  0  0  0  0  0  0  0  0
    6.0354   -1.7188    0.4859 C   0  0  0  0  0  0  0  0  0  0  0  0
    2.7670   -0.2432   -0.9673 C   0  0  0  0  0  0  0  0  0  0  0  0
    2.9702   -0.3883   -2.1644 O   0  0  0  0  0  0  0  0  0  0  0  0
    1.5409    0.2910   -0.5503 N   0  0  0  0  0  0  0  0  0  0  0  0
    0.4720    0.5223   -1.5581 C   0  0  0  0  0  0  0  0  0  0  0  0
   -0.8361   -0.1766   -1.1465 C   0  0  0  0  0  0  0  0  0  0  0  0
   -1.3094    0.2478    0.2077 N   0  0  0  0  0  0  0  0  0  0  0  0
   -0.2881    0.9932    0.9875 C   0  0  0  0  0  0  0  0  0  0  0  0
    1.1255    0.3878    0.8732 C   0  0  0  0  0  0  0  0  0  0  0  0
   -2.1831   -0.9665    1.0901 S   0  0  0  0  0  0  0  0  0  0  0  0
   -1.6990   -2.2703    0.6794 O   0  0  0  0  0  0  0  0  0  0  0  0
   -2.0994   -0.5718    2.4850 O   0  0  0  0  0  0  0  0  0  0  0  0
   -3.8011   -0.7574    0.5150 C   0  0  0  0  0  0  0  0  0  0  0  0
   -4.5747    0.2866    0.9608 C   0  0  0  0  0  0  0  0  0  0  0  0
   -5.9103    0.4515    0.4804 C   0  0  0  0  0  0  0  0  0  0  0  0
   -6.4264   -0.4810   -0.4608 C   0  0  0  0  0  0  0  0  0  0  0  0
   -5.5996   -1.5636   -0.8983 C   0  0  0  0  0  0  0  0  0  0  0  0
   -4.3206   -1.6976   -0.4197 C   0  0  0  0  0  0  0  0  0  0  0  0
   -7.7627   -0.3169   -0.9464 C   0  0  0  0  0  0  0  0  0  0  0  0
   -8.5123    0.7360   -0.4888 C   0  0  0  0  0  0  0  0  0  0  0  0
   -8.0151    1.6793    0.4562 C   0  0  0  0  0  0  0  0  0  0  0  0
   -6.7361    1.5336    0.9287 C   0  0  0  0  0  0  0  0  0  0  0  0
  -10.1236    0.9513   -1.0622 Cl  0  0  0  0  0  0  0  0  0  0  0  0
   10.0856   -0.4374   -2.0811 H   0  0  0  0  0  0  0  0  0  0  0  0
    8.1813   -1.5789   -0.9267 H   0  0  0  0  0  0  0  0  0  0  0  0
    7.4010    2.1565    1.1457 H   0  0  0  0  0  0  0  0  0  0  0  0
    9.3353    3.1462   -0.0941 H   0  0  0  0  0  0  0  0  0  0  0  0
    5.1913   -0.1437    2.5181 H   0  0  0  0  0  0  0  0  0  0  0  0
    6.0291    1.3452    2.0141 H   0  0  0  0  0  0  0  0  0  0  0  0
    3.6587    1.3396    1.1591 H   0  0  0  0  0  0  0  0  0  0  0  0
    4.8119    1.3410   -0.1870 H   0  0  0  0  0  0  0  0  0  0  0  0
    3.3204   -1.1358    0.9397 H   0  0  0  0  0  0  0  0  0  0  0  0
    5.2873   -0.9967   -1.4406 H   0  0  0  0  0  0  0  0  0  0  0  0
    4.4580   -2.4311   -0.8447 H   0  0  0  0  0  0  0  0  0  0  0  0
    5.6688   -2.2925    1.3671 H   0  0  0  0  0  0  0  0  0  0  0  0
    6.8307   -2.3434    0.0195 H   0  0  0  0  0  0  0  0  0  0  0  0
    0.8149    0.1414   -2.5533 H   0  0  0  0  0  0  0  0  0  0  0  0
    0.3181    1.6190   -1.6706 H   0  0  0  0  0  0  0  0  0  0  0  0
   -1.6393    0.0909   -1.8716 H   0  0  0  0  0  0  0  0  0  0  0  0
   -0.6896   -1.2843   -1.1996 H   0  0  0  0  0  0  0  0  0  0  0  0
   -0.2861    2.0448    0.6136 H   0  0  0  0  0  0  0  0  0  0  0  0
   -0.5883    1.0461    2.0636 H   0  0  0  0  0  0  0  0  0  0  0  0
    1.8558    1.0296    1.4220 H   0  0  0  0  0  0  0  0  0  0  0  0
    1.1494   -0.6212    1.3476 H   0  0  0  0  0  0  0  0  0  0  0  0
   -4.1889    1.0052    1.6931 H   0  0  0  0  0  0  0  0  0  0  0  0
   -6.0066   -2.2795   -1.6127 H   0  0  0  0  0  0  0  0  0  0  0  0
   -3.6869   -2.5341   -0.7398 H   0  0  0  0  0  0  0  0  0  0  0  0
   -8.1616   -1.0299   -1.6686 H   0  0  0  0  0  0  0  0  0  0  0  0
   -8.6580    2.4962    0.7862 H   0  0  0  0  0  0  0  0  0  0  0  0
   -6.3277    2.2390    1.6546 H   0  0  0  0  0  0  0  0  0  0  0  0
  1  6  1  0  0  0  0
  2  1  2  0  0  0  0
  2  3  1  0  0  0  0
  3  4  2  0  0  0  0
  4  5  1  0  0  0  0
  4  7  1  0  0  0  0
  5 37  1  0  0  0  0
  6 38  1  0  0  0  0
  6  5  2  0  0  0  0
  7  8  1  0  0  0  0
  8 40  1  0  0  0  0
  8 39  1  0  0  0  0
  9 41  1  0  0  0  0
  9  8  1  0  0  0  0
 10  9  1  0  0  0  0
 10 43  1  0  0  0  0
 11 10  1  0  0  0  0
 11 12  1  0  0  0  0
 12  7  1  0  0  0  0
 12 46  1  0  0  0  0
 13 15  1  0  0  0  0
 13 10  1  0  0  0  0
 14 13  2  0  0  0  0
 15 20  1  0  0  0  0
 16 17  1  0  0  0  0
 16 15  1  0  0  0  0
 17 18  1  0  0  0  0
 18 19  1  0  0  0  0
 18 21  1  0  0  0  0
 19 53  1  0  0  0  0
 20 19  1  0  0  0  0
 20 55  1  0  0  0  0
 20 54  1  0  0  0  0
 21 23  2  0  0  0  0
 22 21  2  0  0  0  0
 24 25  1  0  0  0  0
 24 21  1  0  0  0  0
 25 56  1  0  0  0  0
 26 33  1  0  0  0  0
 26 25  2  0  0  0  0
 27 26  1  0  0  0  0
 28 27  2  0  0  0  0
 28 29  1  0  0  0  0
 29 24  2  0  0  0  0
 30 31  2  0  0  0  0
 30 27  1  0  0  0  0
 31 32  1  0  0  0  0
 32 60  1  0  0  0  0
 32 33  2  0  0  0  0
 33 61  1  0  0  0  0
 34 31  1  0  0  0  0
 35  2  1  0  0  0  0
 36  3  1  0  0  0  0
 42  9  1  0  0  0  0
 44 11  1  0  0  0  0
 45 11  1  0  0  0  0
 47 12  1  0  0  0  0
 48 16  1  0  0  0  0
 49 16  1  0  0  0  0
 50 17  1  0  0  0  0
 51 17  1  0  0  0  0
 52 19  1  0  0  0  0
 57 28  1  0  0  0  0
 58 29  1  0  0  0  0
 59 30  1  0  0  0  0
M  END
