omegapdb_1m5f_15.log
 OpenBabel10161801213D
Gaussian 16 # PM6 Opt
 25 25  0  0  1  0  0  0  0  0999 V2000
    0.9917   -2.3107    0.6049 O   0  0  0  0  0  0  0  0  0  0  0  0
    1.9322   -1.7122   -0.2099 C   0  0  0  0  0  0  0  0  0  0  0  0
    2.6442   -2.3799   -0.9110 O   0  0  0  0  0  0  0  0  0  0  0  0
    1.8491   -0.2435   -0.0600 C   0  0  0  0  0  0  0  0  0  0  0  0
    2.8872    0.5077    0.3364 N   0  0  0  0  0  0  0  0  0  0  0  0
    2.4904    1.8204    0.3363 O   0  0  0  0  0  0  0  0  0  0  0  0
    1.1428    1.8803   -0.0846 C   0  0  0  0  0  0  0  0  0  0  0  0
    0.6973    0.5997   -0.3396 C   0  0  0  0  0  0  0  0  0  0  0  0
   -0.6410    0.1564   -0.7840 C   0  0  0  0  0  0  0  0  0  0  0  0
   -1.6223    0.0775    0.4135 C   0  0  2  0  0  0  0  0  0  0  0  0
   -1.3259   -0.9653    1.4195 N   0  0  0  0  0  0  0  0  0  0  0  0
   -3.0138   -0.2387   -0.1358 C   0  0  0  0  0  0  0  0  0  0  0  0
   -3.4355   -1.2344   -0.6674 O   0  0  0  0  0  0  0  0  0  0  0  0
   -3.8178    0.8656    0.0184 O   0  0  0  0  0  0  0  0  0  0  0  0
    0.5748    3.2268   -0.1443 C   0  0  0  0  0  0  0  0  0  0  0  0
    1.0336   -3.3087    0.5587 H   0  0  0  0  0  0  0  0  0  0  0  0
   -0.5814   -0.8327   -1.2913 H   0  0  0  0  0  0  0  0  0  0  0  0
   -1.0388    0.8534   -1.5548 H   0  0  0  0  0  0  0  0  0  0  0  0
   -1.6540    1.0718    0.9425 H   0  0  0  0  0  0  0  0  0  0  0  0
   -1.2544   -1.8868    0.9851 H   0  0  0  0  0  0  0  0  0  0  0  0
   -0.4255   -0.7864    1.8648 H   0  0  0  0  0  0  0  0  0  0  0  0
   -4.7508    0.7135   -0.2929 H   0  0  0  0  0  0  0  0  0  0  0  0
    0.2012    3.4665   -1.1555 H   0  0  0  0  0  0  0  0  0  0  0  0
    1.3157    4.0031    0.1186 H   0  0  0  0  0  0  0  0  0  0  0  0
   -0.2742    3.3437    0.5524 H   0  0  0  0  0  0  0  0  0  0  0  0
  2  4  1  0  0  0  0
  2  1  1  0  0  0  0
  3  2  2  0  0  0  0
  4  5  2  0  0  0  0
  6  5  1  0  0  0  0
  7  6  1  0  0  0  0
  8  7  2  0  0  0  0
  8  4  1  0  0  0  0
  9  8  1  0  0  0  0
  9 10  1  0  0  0  0
 10 19  1  1  0  0  0
 10 11  1  0  0  0  0
 11 21  1  0  0  0  0
 12 14  1  0  0  0  0
 12 10  1  0  0  0  0
 13 12  2  0  0  0  0
 15  7  1  0  0  0  0
 15 24  1  0  0  0  0
 15 25  1  0  0  0  0
 16  1  1  0  0  0  0
 17  9  1  0  0  0  0
 18  9  1  0  0  0  0
 20 11  1  0  0  0  0
 22 14  1  0  0  0  0
 23 15  1  0  0  0  0
M  END
