omegapdb_1gs5_09.log
 OpenBabel10161801213D
Gaussian 16 # PM6 Opt
 24 23  0  0  1  0  0  0  0  0999 V2000
    1.0123   -0.5704   -0.4488 C   0  0  2  0  0  0  0  0  0  0  0  0
    2.2649   -0.2673    0.3691 C   0  0  0  0  0  0  0  0  0  0  0  0
    2.3687    0.0755    1.5207 O   0  0  0  0  0  0  0  0  0  0  0  0
    3.3709   -0.4269   -0.4238 O   0  0  0  0  0  0  0  0  0  0  0  0
    0.6156    0.6653   -1.2864 C   0  0  0  0  0  0  0  0  0  0  0  0
    0.1746    1.8736   -0.4694 C   0  0  0  0  0  0  0  0  0  0  0  0
   -1.2107    1.7686    0.1220 C   0  0  0  0  0  0  0  0  0  0  0  0
   -1.5661    2.2340    1.1748 O   0  0  0  0  0  0  0  0  0  0  0  0
   -2.1752    1.1120   -0.6088 O   0  0  0  0  0  0  0  0  0  0  0  0
   -0.0466   -1.0153    0.4800 N   0  0  0  0  0  0  0  0  0  0  0  0
   -1.2107   -1.6147   -0.0386 C   0  0  0  0  0  0  0  0  0  0  0  0
   -1.3150   -1.7663   -1.2461 O   0  0  0  0  0  0  0  0  0  0  0  0
   -2.2380   -1.9976    0.9747 C   0  0  0  0  0  0  0  0  0  0  0  0
    1.2344   -1.4183   -1.1688 H   0  0  0  0  0  0  0  0  0  0  0  0
    4.2247   -0.2392    0.0581 H   0  0  0  0  0  0  0  0  0  0  0  0
    1.4734    0.9438   -1.9368 H   0  0  0  0  0  0  0  0  0  0  0  0
   -0.1962    0.3520   -1.9876 H   0  0  0  0  0  0  0  0  0  0  0  0
    0.2133    2.7939   -1.0962 H   0  0  0  0  0  0  0  0  0  0  0  0
    0.8919    2.0750    0.3620 H   0  0  0  0  0  0  0  0  0  0  0  0
   -1.8494    0.6345   -1.4214 H   0  0  0  0  0  0  0  0  0  0  0  0
    0.0276   -0.7148    1.4538 H   0  0  0  0  0  0  0  0  0  0  0  0
   -2.9569   -2.7125    0.5388 H   0  0  0  0  0  0  0  0  0  0  0  0
   -2.8271   -1.1166    1.2891 H   0  0  0  0  0  0  0  0  0  0  0  0
   -1.8240   -2.4605    1.8796 H   0  0  0  0  0  0  0  0  0  0  0  0
  1 14  1  6  0  0  0
  1  2  1  0  0  0  0
  1 10  1  0  0  0  0
  2  3  2  0  0  0  0
  4 15  1  0  0  0  0
  4  2  1  0  0  0  0
  5  6  1  0  0  0  0
  5  1  1  0  0  0  0
  6  7  1  0  0  0  0
  6 19  1  0  0  0  0
  7  8  2  0  0  0  0
  9  7  1  0  0  0  0
 10 21  1  0  0  0  0
 11 10  1  0  0  0  0
 11 13  1  0  0  0  0
 12 11  2  0  0  0  0
 13 23  1  0  0  0  0
 13 24  1  0  0  0  0
 16  5  1  0  0  0  0
 17  5  1  0  0  0  0
 18  6  1  0  0  0  0
 20  9  1  0  0  0  0
 22 13  1  0  0  0  0
M  END
