omegapdb_1z1r_21.log
 OpenBabel10161801213D
Gaussian 16 # PM6 Opt
 66 68  0  0  1  0  0  0  0  0999 V2000
   -0.3102   -1.9207    1.2911 C   0  0  2  0  0  0  0  0  0  0  0  0
   -1.2596   -3.0878    0.9298 C   0  0  0  0  0  0  0  0  0  0  0  0
   -2.5786   -2.6027    0.3985 C   0  0  0  0  0  0  0  0  0  0  0  0
   -3.3360   -1.6708    1.1295 C   0  0  0  0  0  0  0  0  0  0  0  0
   -4.4676   -1.0840    0.5700 C   0  0  0  0  0  0  0  0  0  0  0  0
   -4.8518   -1.4600   -0.7266 C   0  0  0  0  0  0  0  0  0  0  0  0
   -4.1678   -2.4627   -1.4351 C   0  0  0  0  0  0  0  0  0  0  0  0
   -3.0290   -3.0262   -0.8622 C   0  0  0  0  0  0  0  0  0  0  0  0
   -5.9229   -0.9037   -1.3976 O   0  0  0  0  0  0  0  0  0  0  0  0
   -6.1643    0.5190   -1.1896 C   0  0  0  0  0  0  0  0  0  0  0  0
   -5.2336    1.3481   -2.0756 C   0  0  0  0  0  0  0  0  0  0  0  0
   -3.7801    1.4006   -1.5902 C   0  0  0  0  0  0  0  0  0  0  0  0
   -3.6544    2.0911   -0.2478 C   0  0  0  0  0  0  0  0  0  0  0  0
   -4.5918    2.5935    0.3517 O   0  0  0  0  0  0  0  0  0  0  0  0
   -2.3937    2.1610    0.3602 N   0  0  0  0  0  0  0  0  0  0  0  0
   -1.1334    1.5931   -0.1387 C   0  0  2  0  0  0  0  0  0  0  0  0
   -0.6893    0.5104    0.8848 C   0  0  0  0  0  0  0  0  0  0  0  0
   -0.4852    0.7310    2.0666 O   0  0  0  0  0  0  0  0  0  0  0  0
   -0.4901   -0.7712    0.3671 N   0  0  0  0  0  0  0  0  0  0  0  0
   -0.0232    2.6492   -0.2631 C   0  0  0  0  0  0  0  0  0  0  0  0
    0.2346    3.3924    1.0392 C   0  0  0  0  0  0  0  0  0  0  0  0
   -0.5971    4.1086    1.5761 O   0  0  0  0  0  0  0  0  0  0  0  0
    1.5226    3.2824    1.5530 N   0  0  0  0  0  0  0  0  0  0  0  0
    1.1768   -2.3719    1.2094 C   0  0  2  0  0  0  0  0  0  0  0  0
    1.3462   -3.6333    1.8610 O   0  0  0  0  0  0  0  0  0  0  0  0
    2.1353   -1.3289    1.8337 C   0  0  0  0  0  0  0  0  0  0  0  0
    3.3905   -1.1651    1.0657 N   0  0  0  0  0  0  0  0  0  0  0  0
    3.2620   -0.2576   -0.3898 S   0  0  0  0  0  0  0  0  0  0  0  0
    2.6244    1.0093   -0.0462 O   0  0  0  0  0  0  0  0  0  0  0  0
    2.6043   -1.0785   -1.3906 O   0  0  0  0  0  0  0  0  0  0  0  0
    4.9107   -0.0178   -0.8197 C   0  0  0  0  0  0  0  0  0  0  0  0
    5.7272    0.8158   -0.0474 C   0  0  0  0  0  0  0  0  0  0  0  0
    7.0624    1.0150   -0.4103 C   0  0  0  0  0  0  0  0  0  0  0  0
    7.5774    0.3837   -1.5478 C   0  0  0  0  0  0  0  0  0  0  0  0
    6.7599   -0.4464   -2.3240 C   0  0  0  0  0  0  0  0  0  0  0  0
    5.4261   -0.6456   -1.9606 C   0  0  0  0  0  0  0  0  0  0  0  0
   -0.5391   -1.5730    2.3383 H   0  0  0  0  0  0  0  0  0  0  0  0
   -0.7662   -3.7683    0.2035 H   0  0  0  0  0  0  0  0  0  0  0  0
   -1.4179   -3.7177    1.8303 H   0  0  0  0  0  0  0  0  0  0  0  0
   -3.0229   -1.3793    2.1331 H   0  0  0  0  0  0  0  0  0  0  0  0
   -5.0374   -0.3363    1.1222 H   0  0  0  0  0  0  0  0  0  0  0  0
   -4.5261   -2.7700   -2.4145 H   0  0  0  0  0  0  0  0  0  0  0  0
   -2.4774   -3.7891   -1.4112 H   0  0  0  0  0  0  0  0  0  0  0  0
   -7.2197    0.5981   -1.5123 H   0  0  0  0  0  0  0  0  0  0  0  0
   -6.0794    0.7840   -0.1192 H   0  0  0  0  0  0  0  0  0  0  0  0
   -5.6393    2.3823   -2.1319 H   0  0  0  0  0  0  0  0  0  0  0  0
   -5.2535    0.9408   -3.1074 H   0  0  0  0  0  0  0  0  0  0  0  0
   -3.3669    0.3708   -1.5378 H   0  0  0  0  0  0  0  0  0  0  0  0
   -3.1681    1.9418   -2.3421 H   0  0  0  0  0  0  0  0  0  0  0  0
   -2.3065    2.7485    1.2135 H   0  0  0  0  0  0  0  0  0  0  0  0
   -1.2826    1.1327   -1.1512 H   0  0  0  0  0  0  0  0  0  0  0  0
   -0.6613   -1.0004   -0.6084 H   0  0  0  0  0  0  0  0  0  0  0  0
   -0.3060    3.4027   -1.0295 H   0  0  0  0  0  0  0  0  0  0  0  0
    0.9091    2.1613   -0.6437 H   0  0  0  0  0  0  0  0  0  0  0  0
    2.1525    2.5514    1.2292 H   0  0  0  0  0  0  0  0  0  0  0  0
    1.7081    3.6481    2.4753 H   0  0  0  0  0  0  0  0  0  0  0  0
    1.4545   -2.6201    0.1524 H   0  0  0  0  0  0  0  0  0  0  0  0
    1.0876   -3.5892    2.8035 H   0  0  0  0  0  0  0  0  0  0  0  0
    2.4012   -1.6400    2.8715 H   0  0  0  0  0  0  0  0  0  0  0  0
    1.6383   -0.3304    1.9511 H   0  0  0  0  0  0  0  0  0  0  0  0
    3.9203   -2.0481    1.0340 H   0  0  0  0  0  0  0  0  0  0  0  0
    5.3265    1.3162    0.8398 H   0  0  0  0  0  0  0  0  0  0  0  0
    7.6994    1.6639    0.1906 H   0  0  0  0  0  0  0  0  0  0  0  0
    8.6197    0.5405   -1.8323 H   0  0  0  0  0  0  0  0  0  0  0  0
    7.1621   -0.9340   -3.2119 H   0  0  0  0  0  0  0  0  0  0  0  0
    4.7822   -1.2898   -2.5724 H   0  0  0  0  0  0  0  0  0  0  0  0
  1 37  1  1  0  0  0
  2  1  1  0  0  0  0
  2 39  1  0  0  0  0
  3  2  1  0  0  0  0
  3  4  2  0  0  0  0
  4 40  1  0  0  0  0
  5 41  1  0  0  0  0
  5  4  1  0  0  0  0
  6  5  2  0  0  0  0
  7  8  2  0  0  0  0
  7  6  1  0  0  0  0
  8  3  1  0  0  0  0
  9 10  1  0  0  0  0
  9  6  1  0  0  0  0
 10 45  1  0  0  0  0
 11 12  1  0  0  0  0
 11 10  1  0  0  0  0
 12 48  1  0  0  0  0
 12 13  1  0  0  0  0
 13 14  2  0  0  0  0
 13 15  1  0  0  0  0
 15 50  1  0  0  0  0
 16 51  1  6  0  0  0
 16 15  1  0  0  0  0
 16 17  1  0  0  0  0
 17 18  2  0  0  0  0
 19 17  1  0  0  0  0
 19  1  1  0  0  0  0
 20 16  1  0  0  0  0
 20 21  1  0  0  0  0
 21 23  1  0  0  0  0
 21 22  2  0  0  0  0
 23 56  1  0  0  0  0
 24 57  1  6  0  0  0
 24  1  1  0  0  0  0
 24 26  1  0  0  0  0
 24 25  1  0  0  0  0
 25 58  1  0  0  0  0
 26 60  1  0  0  0  0
 26 59  1  0  0  0  0
 27 26  1  0  0  0  0
 28 29  2  0  0  0  0
 28 27  1  0  0  0  0
 30 28  2  0  0  0  0
 31 28  1  0  0  0  0
 31 32  2  0  0  0  0
 32 62  1  0  0  0  0
 33 32  1  0  0  0  0
 33 63  1  0  0  0  0
 34 33  2  0  0  0  0
 35 36  2  0  0  0  0
 35 34  1  0  0  0  0
 36 31  1  0  0  0  0
 38  2  1  0  0  0  0
 42  7  1  0  0  0  0
 43  8  1  0  0  0  0
 44 10  1  0  0  0  0
 46 11  1  0  0  0  0
 47 11  1  0  0  0  0
 49 12  1  0  0  0  0
 52 19  1  0  0  0  0
 53 20  1  0  0  0  0
 54 20  1  0  0  0  0
 55 23  1  0  0  0  0
 61 27  1  0  0  0  0
 64 34  1  0  0  0  0
 65 35  1  0  0  0  0
 66 36  1  0  0  0  0
M  END
