omegapdb_1m5f_07.log
 OpenBabel10161801213D
Gaussian 16 # PM6 Opt
 25 25  0  0  1  0  0  0  0  0999 V2000
    3.5128   -1.6870    0.2704 O   0  0  0  0  0  0  0  0  0  0  0  0
    2.2067   -1.3916    0.0033 C   0  0  0  0  0  0  0  0  0  0  0  0
    1.4667   -2.3136   -0.2442 O   0  0  0  0  0  0  0  0  0  0  0  0
    1.8094    0.0396    0.0390 C   0  0  0  0  0  0  0  0  0  0  0  0
    2.5619    1.0389    0.5264 N   0  0  0  0  0  0  0  0  0  0  0  0
    1.8531    2.2056    0.4237 O   0  0  0  0  0  0  0  0  0  0  0  0
    0.5950    1.9137   -0.1582 C   0  0  0  0  0  0  0  0  0  0  0  0
    0.5356    0.5608   -0.4218 C   0  0  0  0  0  0  0  0  0  0  0  0
   -0.5639   -0.2301   -1.0171 C   0  0  0  0  0  0  0  0  0  0  0  0
   -1.4561   -0.8481    0.0844 C   0  0  2  0  0  0  0  0  0  0  0  0
   -1.8331   -2.2644   -0.1450 N   0  0  0  0  0  0  0  0  0  0  0  0
   -2.7460   -0.0275    0.2493 C   0  0  0  0  0  0  0  0  0  0  0  0
   -2.8493    1.1584    0.0369 O   0  0  0  0  0  0  0  0  0  0  0  0
   -3.8438   -0.6847    0.7169 O   0  0  0  0  0  0  0  0  0  0  0  0
   -0.3078    3.0487   -0.3173 C   0  0  0  0  0  0  0  0  0  0  0  0
    4.0942   -0.9081    0.4911 H   0  0  0  0  0  0  0  0  0  0  0  0
   -1.1696    0.4048   -1.7024 H   0  0  0  0  0  0  0  0  0  0  0  0
   -0.1343   -1.0364   -1.6563 H   0  0  0  0  0  0  0  0  0  0  0  0
   -0.9192   -0.7896    1.0763 H   0  0  0  0  0  0  0  0  0  0  0  0
   -1.0540   -2.8801    0.1036 H   0  0  0  0  0  0  0  0  0  0  0  0
   -2.0430   -2.4383   -1.1266 H   0  0  0  0  0  0  0  0  0  0  0  0
   -3.7048   -1.6759    0.8383 H   0  0  0  0  0  0  0  0  0  0  0  0
   -0.0909    3.8700    0.3849 H   0  0  0  0  0  0  0  0  0  0  0  0
   -0.2687    3.4713   -1.3358 H   0  0  0  0  0  0  0  0  0  0  0  0
   -1.3661    2.7388   -0.1429 H   0  0  0  0  0  0  0  0  0  0  0  0
  1 16  1  0  0  0  0
  2  4  1  0  0  0  0
  2  1  1  0  0  0  0
  3  2  2  0  0  0  0
  4  5  2  0  0  0  0
  6  5  1  0  0  0  0
  7  6  1  0  0  0  0
  8  7  2  0  0  0  0
  8  4  1  0  0  0  0
  9  8  1  0  0  0  0
  9 10  1  0  0  0  0
 10 12  1  0  0  0  0
 10 19  1  1  0  0  0
 11 10  1  0  0  0  0
 11 20  1  0  0  0  0
 12 14  1  0  0  0  0
 13 12  2  0  0  0  0
 14 22  1  0  0  0  0
 15  7  1  0  0  0  0
 15 25  1  0  0  0  0
 15 23  1  0  0  0  0
 17  9  1  0  0  0  0
 18  9  1  0  0  0  0
 21 11  1  0  0  0  0
 24 15  1  0  0  0  0
M  END
