omegacsd_SEYMIS_12.log
 OpenBabel10161801213D
Gaussian 16 # PM6 Opt
 45 47  0  0  0  0  0  0  0  0999 V2000
    4.3518   -2.7550    0.2734 O   0  0  0  0  0  0  0  0  0  0  0  0
    4.7114   -1.4180    0.1177 N   0  0  0  0  0  0  0  0  0  0  0  0
    3.5933   -0.6883   -0.0088 C   0  0  0  0  0  0  0  0  0  0  0  0
    2.4349   -1.5661    0.0741 C   0  0  0  0  0  0  0  0  0  0  0  0
    0.9935   -1.2810   -0.0152 C   0  0  0  0  0  0  0  0  0  0  0  0
    0.1854   -2.1118   -0.4024 O   0  0  0  0  0  0  0  0  0  0  0  0
    0.6035   -0.0046    0.4166 N   0  0  0  0  0  0  0  0  0  0  0  0
   -0.7388    0.4494    0.3892 C   0  0  0  0  0  0  0  0  0  0  0  0
   -1.1400    1.7469    0.8074 C   0  0  0  0  0  0  0  0  0  0  0  0
   -2.5099    1.8292    0.6436 N   0  0  0  0  0  0  0  0  0  0  0  0
   -3.3111    3.0129    0.9644 C   0  0  0  0  0  0  0  0  0  0  0  0
   -2.9881    0.6177    0.1306 C   0  0  0  0  0  0  0  0  0  0  0  0
   -1.8897   -0.2542   -0.0324 C   0  0  0  0  0  0  0  0  0  0  0  0
   -4.3954    0.3610   -0.1632 C   0  0  0  0  0  0  0  0  0  0  0  0
   -5.3416    1.1127   -0.0079 O   0  0  0  0  0  0  0  0  0  0  0  0
   -4.5517   -0.8990   -0.6817 O   0  0  0  0  0  0  0  0  0  0  0  0
   -5.9130   -1.3331   -1.0063 C   0  0  0  0  0  0  0  0  0  0  0  0
   -6.6345   -1.7449    0.2595 C   0  0  0  0  0  0  0  0  0  0  0  0
    2.9598   -2.8383    0.2342 C   0  0  0  0  0  0  0  0  0  0  0  0
    2.3766   -4.1714    0.3631 C   0  0  0  0  0  0  0  0  0  0  0  0
    3.6088    0.7644   -0.2213 C   0  0  0  0  0  0  0  0  0  0  0  0
    2.9207    1.3166   -1.3144 C   0  0  0  0  0  0  0  0  0  0  0  0
    2.9412    2.6980   -1.5177 C   0  0  0  0  0  0  0  0  0  0  0  0
    3.6464    3.5280   -0.6390 C   0  0  0  0  0  0  0  0  0  0  0  0
    4.3374    2.9761    0.4444 C   0  0  0  0  0  0  0  0  0  0  0  0
    4.3249    1.5946    0.6552 C   0  0  0  0  0  0  0  0  0  0  0  0
    1.2984    0.6605    0.7575 H   0  0  0  0  0  0  0  0  0  0  0  0
   -0.5353    2.5479    1.1868 H   0  0  0  0  0  0  0  0  0  0  0  0
   -3.2200    3.2754    2.0332 H   0  0  0  0  0  0  0  0  0  0  0  0
   -2.9971    3.8805    0.3577 H   0  0  0  0  0  0  0  0  0  0  0  0
   -4.3924    2.8313    0.7550 H   0  0  0  0  0  0  0  0  0  0  0  0
   -1.9296   -1.2661   -0.4090 H   0  0  0  0  0  0  0  0  0  0  0  0
   -5.6954   -2.1805   -1.6826 H   0  0  0  0  0  0  0  0  0  0  0  0
   -6.4262   -0.5169   -1.5449 H   0  0  0  0  0  0  0  0  0  0  0  0
   -7.5891   -2.2350    0.0369 H   0  0  0  0  0  0  0  0  0  0  0  0
   -6.8486   -0.8731    0.8958 H   0  0  0  0  0  0  0  0  0  0  0  0
   -6.0306   -2.4406    0.8573 H   0  0  0  0  0  0  0  0  0  0  0  0
    2.3307   -4.5046    1.4143 H   0  0  0  0  0  0  0  0  0  0  0  0
    1.3308   -4.1733   -0.0216 H   0  0  0  0  0  0  0  0  0  0  0  0
    2.9384   -4.9373   -0.1963 H   0  0  0  0  0  0  0  0  0  0  0  0
    2.3762    0.6672   -2.0021 H   0  0  0  0  0  0  0  0  0  0  0  0
    2.4097    3.1281   -2.3663 H   0  0  0  0  0  0  0  0  0  0  0  0
    3.6620    4.6049   -0.8030 H   0  0  0  0  0  0  0  0  0  0  0  0
    4.8940    3.6220    1.1226 H   0  0  0  0  0  0  0  0  0  0  0  0
    4.8765    1.1595    1.4898 H   0  0  0  0  0  0  0  0  0  0  0  0
  2  1  1  0  0  0  0
  3  4  1  0  0  0  0
  3  2  2  0  0  0  0
  4 19  2  0  0  0  0
  5  4  1  0  0  0  0
  5  7  1  0  0  0  0
  6  5  2  0  0  0  0
  7 27  1  0  0  0  0
  8  7  1  0  0  0  0
  8  9  2  0  0  0  0
  9 28  1  0  0  0  0
 10  9  1  0  0  0  0
 10 11  1  0  0  0  0
 11 29  1  0  0  0  0
 12 10  1  0  0  0  0
 13 12  2  0  0  0  0
 13  8  1  0  0  0  0
 14 15  2  0  0  0  0
 14 12  1  0  0  0  0
 16 14  1  0  0  0  0
 17 16  1  0  0  0  0
 17 18  1  0  0  0  0
 18 37  1  0  0  0  0
 18 36  1  0  0  0  0
 19  1  1  0  0  0  0
 19 20  1  0  0  0  0
 20 38  1  0  0  0  0
 21  3  1  0  0  0  0
 21 26  2  0  0  0  0
 22 21  1  0  0  0  0
 23 22  2  0  0  0  0
 23 24  1  0  0  0  0
 24 25  2  0  0  0  0
 25 26  1  0  0  0  0
 25 44  1  0  0  0  0
 26 45  1  0  0  0  0
 30 11  1  0  0  0  0
 31 11  1  0  0  0  0
 32 13  1  0  0  0  0
 33 17  1  0  0  0  0
 34 17  1  0  0  0  0
 35 18  1  0  0  0  0
 39 20  1  0  0  0  0
 40 20  1  0  0  0  0
 41 22  1  0  0  0  0
 42 23  1  0  0  0  0
 43 24  1  0  0  0  0
M  END
