omegapdb_2f7p_11.log
 OpenBabel10161801213D
Gaussian 16 # PM6 Opt
 34 35  0  0  1  0  0  0  0  0999 V2000
    0.5123   -0.0871   -0.0788 C   0  0  1  0  0  0  0  0  0  0  0  0
   -0.1906   -0.4333   -1.3470 N   0  0  0  0  0  0  0  0  0  0  0  0
   -1.3988    0.4008   -1.5996 C   0  0  0  0  0  0  0  0  0  0  0  0
   -2.5465    0.1269   -0.6554 C   0  0  0  0  0  0  0  0  0  0  0  0
   -3.2952   -1.0525   -0.7842 C   0  0  0  0  0  0  0  0  0  0  0  0
   -4.3469   -1.3141    0.0975 C   0  0  0  0  0  0  0  0  0  0  0  0
   -4.6582   -0.4010    1.1108 C   0  0  0  0  0  0  0  0  0  0  0  0
   -3.9153    0.7765    1.2384 C   0  0  0  0  0  0  0  0  0  0  0  0
   -2.8613    1.0416    0.3588 C   0  0  0  0  0  0  0  0  0  0  0  0
    1.2424   -1.3282    0.5127 C   0  0  1  0  0  0  0  0  0  0  0  0
    1.6261   -2.2783   -0.4848 O   0  0  0  0  0  0  0  0  0  0  0  0
    2.5405   -0.7819    1.1656 C   0  0  1  0  0  0  0  0  0  0  0  0
    3.6322   -1.6795    0.9947 O   0  0  0  0  0  0  0  0  0  0  0  0
    2.8822    0.5395    0.4119 C   0  0  1  0  0  0  0  0  0  0  0  0
    3.8998    0.3035   -0.5661 O   0  0  0  0  0  0  0  0  0  0  0  0
    1.6294    0.9404   -0.3834 C   0  0  2  0  0  0  0  0  0  0  0  0
    1.0412    2.5782    0.1371 S   0  0  0  0  0  0  0  0  0  0  0  0
   -0.1895    0.3058    0.7059 H   0  0  0  0  0  0  0  0  0  0  0  0
   -0.4477   -1.4315   -1.3453 H   0  0  0  0  0  0  0  0  0  0  0  0
   -1.7085    0.2043   -2.6539 H   0  0  0  0  0  0  0  0  0  0  0  0
   -1.1058    1.4770   -1.5757 H   0  0  0  0  0  0  0  0  0  0  0  0
   -3.0624   -1.7637   -1.5748 H   0  0  0  0  0  0  0  0  0  0  0  0
   -4.9271   -2.2298   -0.0062 H   0  0  0  0  0  0  0  0  0  0  0  0
   -5.4785   -0.6058    1.7959 H   0  0  0  0  0  0  0  0  0  0  0  0
   -4.1583    1.4910    2.0236 H   0  0  0  0  0  0  0  0  0  0  0  0
   -2.2903    1.9644    0.4607 H   0  0  0  0  0  0  0  0  0  0  0  0
    0.6144   -1.9271    1.2028 H   0  0  0  0  0  0  0  0  0  0  0  0
    1.9696   -1.8076   -1.2928 H   0  0  0  0  0  0  0  0  0  0  0  0
    2.4503   -0.6320    2.2602 H   0  0  0  0  0  0  0  0  0  0  0  0
    3.3745   -2.4145    0.3585 H   0  0  0  0  0  0  0  0  0  0  0  0
    3.2637    1.3218    1.1009 H   0  0  0  0  0  0  0  0  0  0  0  0
    4.5297   -0.3946   -0.2289 H   0  0  0  0  0  0  0  0  0  0  0  0
    1.8711    0.9437   -1.4791 H   0  0  0  0  0  0  0  0  0  0  0  0
    1.9963    3.3479   -0.4313 H   0  0  0  0  0  0  0  0  0  0  0  0
  1 10  1  0  0  0  0
  1 18  1  1  0  0  0
  2 19  1  0  0  0  0
  2  1  1  0  0  0  0
  3 21  1  0  0  0  0
  3  2  1  0  0  0  0
  3  4  1  0  0  0  0
  4  9  1  0  0  0  0
  5  4  2  0  0  0  0
  5  6  1  0  0  0  0
  6  7  2  0  0  0  0
  7  8  1  0  0  0  0
  7 24  1  0  0  0  0
  8 25  1  0  0  0  0
  9 26  1  0  0  0  0
  9  8  2  0  0  0  0
 10 12  1  0  0  0  0
 10 27  1  1  0  0  0
 11 10  1  0  0  0  0
 12 29  1  1  0  0  0
 13 12  1  0  0  0  0
 14 31  1  1  0  0  0
 14 12  1  0  0  0  0
 15 32  1  0  0  0  0
 15 14  1  0  0  0  0
 16 33  1  6  0  0  0
 16  1  1  0  0  0  0
 16 17  1  0  0  0  0
 16 14  1  0  0  0  0
 20  3  1  0  0  0  0
 22  5  1  0  0  0  0
 23  6  1  0  0  0  0
 28 11  1  0  0  0  0
 30 13  1  0  0  0  0
 34 17  1  0  0  0  0
M  END
