omegacsd_FABSOQ10_08.log
 OpenBabel10161801213D
Gaussian 16 # PM6 Opt
 45 47  0  0  1  0  0  0  0  0999 V2000
   -0.6443   -0.1641   -0.6218 S   0  0  0  0  0  0  0  0  0  0  0  0
   -1.1228   -1.3179    0.5924 C   0  0  0  0  0  0  0  0  0  0  0  0
   -0.1211   -1.4890    1.5016 C   0  0  0  0  0  0  0  0  0  0  0  0
    1.0486   -0.6923    1.2190 C   0  0  0  0  0  0  0  0  0  0  0  0
    0.9268    0.0691    0.0935 C   0  0  0  0  0  0  0  0  0  0  0  0
    1.8770    1.0471   -0.5153 C   0  0  1  0  0  0  0  0  0  0  0  0
    1.6434    2.3431    0.0654 O   0  0  0  0  0  0  0  0  0  0  0  0
    3.3320    0.6486   -0.3682 C   0  0  0  0  0  0  0  0  0  0  0  0
    4.2925    1.6240   -0.0812 C   0  0  0  0  0  0  0  0  0  0  0  0
    5.6459    1.2895    0.0268 C   0  0  0  0  0  0  0  0  0  0  0  0
    6.0189   -0.0449   -0.1718 C   0  0  0  0  0  0  0  0  0  0  0  0
    7.3015   -0.5389   -0.1000 O   0  0  0  0  0  0  0  0  0  0  0  0
    8.3717    0.3923    0.1907 C   0  0  0  0  0  0  0  0  0  0  0  0
    5.0692   -1.0443   -0.4770 C   0  0  0  0  0  0  0  0  0  0  0  0
    3.7317   -0.6850   -0.5751 C   0  0  0  0  0  0  0  0  0  0  0  0
   -2.4483   -2.0000    0.5116 C   0  0  2  0  0  0  0  0  0  0  0  0
   -2.3909   -3.0242   -0.4947 O   0  0  0  0  0  0  0  0  0  0  0  0
   -3.6028   -1.0539    0.2579 C   0  0  0  0  0  0  0  0  0  0  0  0
   -4.6530   -1.4589   -0.5876 C   0  0  0  0  0  0  0  0  0  0  0  0
   -5.7403   -0.6266   -0.8155 C   0  0  0  0  0  0  0  0  0  0  0  0
   -5.7753    0.6300   -0.1732 C   0  0  0  0  0  0  0  0  0  0  0  0
   -6.9031    1.3538   -0.4870 O   0  0  0  0  0  0  0  0  0  0  0  0
   -7.0514    2.6682    0.1024 C   0  0  0  0  0  0  0  0  0  0  0  0
   -4.7513    1.0472    0.6856 C   0  0  0  0  0  0  0  0  0  0  0  0
   -3.6664    0.1899    0.8949 C   0  0  0  0  0  0  0  0  0  0  0  0
   -0.1628   -2.1541    2.3543 H   0  0  0  0  0  0  0  0  0  0  0  0
    1.9291   -0.7271    1.8488 H   0  0  0  0  0  0  0  0  0  0  0  0
    1.6517    1.2458   -1.5969 H   0  0  0  0  0  0  0  0  0  0  0  0
    1.6918    2.2987    1.0442 H   0  0  0  0  0  0  0  0  0  0  0  0
    3.9795    2.6631    0.0548 H   0  0  0  0  0  0  0  0  0  0  0  0
    6.3762    2.0581    0.2531 H   0  0  0  0  0  0  0  0  0  0  0  0
    8.4401    1.1503   -0.5948 H   0  0  0  0  0  0  0  0  0  0  0  0
    8.2296    0.8384    1.1790 H   0  0  0  0  0  0  0  0  0  0  0  0
    9.2503   -0.2662    0.1789 H   0  0  0  0  0  0  0  0  0  0  0  0
    5.4006   -2.0686   -0.6312 H   0  0  0  0  0  0  0  0  0  0  0  0
    2.9854   -1.4456   -0.8143 H   0  0  0  0  0  0  0  0  0  0  0  0
   -2.6500   -2.6097    1.4332 H   0  0  0  0  0  0  0  0  0  0  0  0
   -2.1401   -2.6507   -1.3672 H   0  0  0  0  0  0  0  0  0  0  0  0
   -4.6074   -2.4434   -1.0622 H   0  0  0  0  0  0  0  0  0  0  0  0
   -6.5594   -0.9183   -1.4684 H   0  0  0  0  0  0  0  0  0  0  0  0
   -8.0089    2.9971   -0.3226 H   0  0  0  0  0  0  0  0  0  0  0  0
   -7.1118    2.5915    1.1916 H   0  0  0  0  0  0  0  0  0  0  0  0
   -6.2355    3.3227   -0.2175 H   0  0  0  0  0  0  0  0  0  0  0  0
   -4.7818    2.0103    1.1825 H   0  0  0  0  0  0  0  0  0  0  0  0
   -2.8645    0.5054    1.5652 H   0  0  0  0  0  0  0  0  0  0  0  0
  1  5  1  0  0  0  0
  1  2  1  0  0  0  0
  2  3  2  0  0  0  0
  3 26  1  0  0  0  0
  4  3  1  0  0  0  0
  4 27  1  0  0  0  0
  5  4  2  0  0  0  0
  6 28  1  6  0  0  0
  6  8  1  0  0  0  0
  6  7  1  0  0  0  0
  6  5  1  0  0  0  0
  7 29  1  0  0  0  0
  8  9  2  0  0  0  0
  9 10  1  0  0  0  0
  9 30  1  0  0  0  0
 10 31  1  0  0  0  0
 11 12  1  0  0  0  0
 11 10  2  0  0  0  0
 12 13  1  0  0  0  0
 13 33  1  0  0  0  0
 14 11  1  0  0  0  0
 15 14  2  0  0  0  0
 15  8  1  0  0  0  0
 16  2  1  0  0  0  0
 16 37  1  1  0  0  0
 17 16  1  0  0  0  0
 18 16  1  0  0  0  0
 18 25  2  0  0  0  0
 19 18  1  0  0  0  0
 20 19  2  0  0  0  0
 20 21  1  0  0  0  0
 21 24  2  0  0  0  0
 22 21  1  0  0  0  0
 22 23  1  0  0  0  0
 23 42  1  0  0  0  0
 24 25  1  0  0  0  0
 24 44  1  0  0  0  0
 25 45  1  0  0  0  0
 32 13  1  0  0  0  0
 34 13  1  0  0  0  0
 35 14  1  0  0  0  0
 36 15  1  0  0  0  0
 38 17  1  0  0  0  0
 39 19  1  0  0  0  0
 40 20  1  0  0  0  0
 41 23  1  0  0  0  0
 43 23  1  0  0  0  0
M  END
