omegacsd_GALSEM_02.log
 OpenBabel10161801213D
Gaussian 16 # PM6 Opt
 39 40  0  0  0  0  0  0  0  0999 V2000
   -3.1115   -0.2017    1.0152 S   0  0  0  0  0  0  0  0  0  0  0  0
   -2.2620   -0.1987    2.1921 O   0  0  0  0  0  0  0  0  0  0  0  0
   -4.5522   -0.1717    1.1503 O   0  0  0  0  0  0  0  0  0  0  0  0
   -2.8859   -1.7644    0.2448 N   0  0  0  0  0  0  0  0  0  0  0  0
   -1.6177   -2.2645   -0.1045 C   0  0  0  0  0  0  0  0  0  0  0  0
   -0.6509   -1.5374    0.0606 O   0  0  0  0  0  0  0  0  0  0  0  0
   -1.5740   -3.6714   -0.6547 C   0  0  0  0  0  0  0  0  0  0  0  0
   -0.2339   -3.9615   -1.3187 C   0  0  0  0  0  0  0  0  0  0  0  0
   -2.5785    0.9395   -0.1053 C   0  0  0  0  0  0  0  0  0  0  0  0
   -1.2419    1.4127   -0.1855 C   0  0  0  0  0  0  0  0  0  0  0  0
   -0.3152    1.0717    0.7742 N   0  0  0  0  0  0  0  0  0  0  0  0
    1.1018    1.3114    0.6166 C   0  0  0  0  0  0  0  0  0  0  0  0
    1.9364    0.2223    0.3072 C   0  0  0  0  0  0  0  0  0  0  0  0
    3.3128    0.4381    0.2106 C   0  0  0  0  0  0  0  0  0  0  0  0
    3.8515    1.7187    0.4159 C   0  0  0  0  0  0  0  0  0  0  0  0
    3.0064    2.7887    0.7209 C   0  0  0  0  0  0  0  0  0  0  0  0
    1.6263    2.5956    0.8247 C   0  0  0  0  0  0  0  0  0  0  0  0
    4.2528   -0.6915   -0.1206 C   0  0  0  0  0  0  0  0  0  0  0  0
    3.6995   -1.9018   -0.2947 F   0  0  0  0  0  0  0  0  0  0  0  0
    5.1986   -0.9080    0.8102 F   0  0  0  0  0  0  0  0  0  0  0  0
    4.9547   -0.5008   -1.2523 F   0  0  0  0  0  0  0  0  0  0  0  0
   -0.9061    2.3020   -1.2603 C   0  0  0  0  0  0  0  0  0  0  0  0
   -1.8941    2.7119   -2.1299 C   0  0  0  0  0  0  0  0  0  0  0  0
   -3.2119    2.3060   -2.0187 N   0  0  0  0  0  0  0  0  0  0  0  0
   -3.5219    1.4524   -1.0365 C   0  0  0  0  0  0  0  0  0  0  0  0
   -3.7127   -2.3644    0.1214 H   0  0  0  0  0  0  0  0  0  0  0  0
   -2.3993   -3.8437   -1.3769 H   0  0  0  0  0  0  0  0  0  0  0  0
   -1.7476   -4.3882    0.1793 H   0  0  0  0  0  0  0  0  0  0  0  0
   -0.0772   -3.3358   -2.2070 H   0  0  0  0  0  0  0  0  0  0  0  0
   -0.1611   -5.0099   -1.6298 H   0  0  0  0  0  0  0  0  0  0  0  0
    0.6044   -3.7549   -0.6364 H   0  0  0  0  0  0  0  0  0  0  0  0
   -0.5561    0.3553    1.5061 H   0  0  0  0  0  0  0  0  0  0  0  0
    1.4842   -0.7678    0.1473 H   0  0  0  0  0  0  0  0  0  0  0  0
    4.9283    1.8859    0.3406 H   0  0  0  0  0  0  0  0  0  0  0  0
    3.4273    3.7822    0.8842 H   0  0  0  0  0  0  0  0  0  0  0  0
    0.9648    3.4274    1.0738 H   0  0  0  0  0  0  0  0  0  0  0  0
    0.1196    2.6404   -1.3865 H   0  0  0  0  0  0  0  0  0  0  0  0
   -1.6889    3.3929   -2.9663 H   0  0  0  0  0  0  0  0  0  0  0  0
   -4.5826    1.1472   -0.9683 H   0  0  0  0  0  0  0  0  0  0  0  0
  1  3  2  0  0  0  0
  1  2  2  0  0  0  0
  4  1  1  0  0  0  0
  5  6  2  0  0  0  0
  5  4  1  0  0  0  0
  7  5  1  0  0  0  0
  7 28  1  0  0  0  0
  8  7  1  0  0  0  0
  8 31  1  0  0  0  0
  9  1  1  0  0  0  0
 10  9  1  0  0  0  0
 10 11  1  0  0  0  0
 11 32  1  0  0  0  0
 12 11  1  0  0  0  0
 12 17  2  0  0  0  0
 13 12  1  0  0  0  0
 14 13  2  0  0  0  0
 14 15  1  0  0  0  0
 15 16  2  0  0  0  0
 16 17  1  0  0  0  0
 16 35  1  0  0  0  0
 17 36  1  0  0  0  0
 18 14  1  0  0  0  0
 18 20  1  0  0  0  0
 19 18  1  0  0  0  0
 21 18  1  0  0  0  0
 22 10  2  0  0  0  0
 23 24  2  0  0  0  0
 23 22  1  0  0  0  0
 24 25  1  0  0  0  0
 25 39  1  0  0  0  0
 25  9  2  0  0  0  0
 26  4  1  0  0  0  0
 27  7  1  0  0  0  0
 29  8  1  0  0  0  0
 30  8  1  0  0  0  0
 33 13  1  0  0  0  0
 34 15  1  0  0  0  0
 37 22  1  0  0  0  0
 38 23  1  0  0  0  0
M  END
