omegacsd_FIBREN_03.log
 OpenBabel10161801213D
Gaussian 16 # PM6 Opt
 39 41  0  0  1  0  0  0  0  0999 V2000
   -3.6589    1.4692   -0.5045 N   0  0  0  0  0  0  0  0  0  0  0  0
   -2.4997    2.2213   -0.4834 C   0  0  0  0  0  0  0  0  0  0  0  0
   -1.2264    1.7423   -0.3237 N   0  0  0  0  0  0  0  0  0  0  0  0
   -1.0154    0.3759   -0.1857 C   0  0  0  0  0  0  0  0  0  0  0  0
   -2.1515   -0.4774   -0.1845 C   0  0  0  0  0  0  0  0  0  0  0  0
   -3.4336    0.1451   -0.3520 C   0  0  0  0  0  0  0  0  0  0  0  0
   -4.3981   -0.8362   -0.3284 O   0  0  0  0  0  0  0  0  0  0  0  0
   -3.6351   -2.0679   -0.1401 C   0  0  0  0  0  0  0  0  0  0  0  0
   -2.3379   -1.8709   -0.0564 N   0  0  0  0  0  0  0  0  0  0  0  0
   -4.4826   -3.2609   -0.0853 C   0  0  0  0  0  0  0  0  0  0  0  0
    0.2628   -0.1124   -0.0898 N   0  0  0  0  0  0  0  0  0  0  0  0
    1.4475    0.7798   -0.0467 C   0  0  1  0  0  0  0  0  0  0  0  0
    1.7319    1.2627    1.3950 C   0  0  0  0  0  0  0  0  0  0  0  0
    1.8466    0.1750    2.4123 C   0  0  0  0  0  0  0  0  0  0  0  0
    1.5596   -0.9995    2.3615 O   0  0  0  0  0  0  0  0  0  0  0  0
    2.3629    0.6942    3.5783 O   0  0  0  0  0  0  0  0  0  0  0  0
    2.6463    0.0805   -0.6632 C   0  0  0  0  0  0  0  0  0  0  0  0
    3.0537   -1.1991   -0.2642 C   0  0  0  0  0  0  0  0  0  0  0  0
    4.1664   -1.7987   -0.8617 C   0  0  0  0  0  0  0  0  0  0  0  0
    4.8797   -1.1248   -1.8572 C   0  0  0  0  0  0  0  0  0  0  0  0
    4.4751    0.1528   -2.2581 C   0  0  0  0  0  0  0  0  0  0  0  0
    3.3611    0.7535   -1.6667 C   0  0  0  0  0  0  0  0  0  0  0  0
   -2.6587    3.6945   -0.6460 C   0  0  0  0  0  0  0  0  0  0  0  0
   -5.5533   -3.0043   -0.1738 H   0  0  0  0  0  0  0  0  0  0  0  0
   -4.2402   -3.9644   -0.9018 H   0  0  0  0  0  0  0  0  0  0  0  0
   -4.3477   -3.8068    0.8655 H   0  0  0  0  0  0  0  0  0  0  0  0
    0.3953   -1.0979    0.1715 H   0  0  0  0  0  0  0  0  0  0  0  0
    1.2075    1.7079   -0.6529 H   0  0  0  0  0  0  0  0  0  0  0  0
    2.6549    1.8875    1.4039 H   0  0  0  0  0  0  0  0  0  0  0  0
    0.9162    1.9612    1.7097 H   0  0  0  0  0  0  0  0  0  0  0  0
    2.4430    0.0137    4.3005 H   0  0  0  0  0  0  0  0  0  0  0  0
    2.5093   -1.7373    0.5176 H   0  0  0  0  0  0  0  0  0  0  0  0
    4.4759   -2.7952   -0.5482 H   0  0  0  0  0  0  0  0  0  0  0  0
    5.7462   -1.5933   -2.3209 H   0  0  0  0  0  0  0  0  0  0  0  0
    5.0266    0.6797   -3.0355 H   0  0  0  0  0  0  0  0  0  0  0  0
    3.0489    1.7448   -1.9934 H   0  0  0  0  0  0  0  0  0  0  0  0
   -1.7089    4.2344   -0.5125 H   0  0  0  0  0  0  0  0  0  0  0  0
   -3.0471    3.9350   -1.6502 H   0  0  0  0  0  0  0  0  0  0  0  0
   -3.3889    4.0962    0.0764 H   0  0  0  0  0  0  0  0  0  0  0  0
  1  2  2  0  0  0  0
  1  6  1  0  0  0  0
  2  3  1  0  0  0  0
  3  4  2  0  0  0  0
  4  5  1  0  0  0  0
  4 11  1  0  0  0  0
  5  9  1  0  0  0  0
  6  7  1  0  0  0  0
  6  5  2  0  0  0  0
  7  8  1  0  0  0  0
  8 10  1  0  0  0  0
  8  9  2  0  0  0  0
 10 26  1  0  0  0  0
 11 12  1  0  0  0  0
 11 27  1  0  0  0  0
 12 28  1  6  0  0  0
 12 13  1  0  0  0  0
 13 29  1  0  0  0  0
 13 30  1  0  0  0  0
 13 14  1  0  0  0  0
 14 16  1  0  0  0  0
 15 14  2  0  0  0  0
 16 31  1  0  0  0  0
 17 18  1  0  0  0  0
 17 12  1  0  0  0  0
 18 32  1  0  0  0  0
 19 33  1  0  0  0  0
 19 18  2  0  0  0  0
 20 19  1  0  0  0  0
 21 20  2  0  0  0  0
 21 22  1  0  0  0  0
 22 17  2  0  0  0  0
 23 37  1  0  0  0  0
 23  2  1  0  0  0  0
 23 39  1  0  0  0  0
 24 10  1  0  0  0  0
 25 10  1  0  0  0  0
 34 20  1  0  0  0  0
 35 21  1  0  0  0  0
 36 22  1  0  0  0  0
 38 23  1  0  0  0  0
M  END
