omegapdb_1qxw_18.log
 OpenBabel10161801213D
Gaussian 16 # PM6 Opt
 36 36  0  0  1  0  0  0  0  0999 V2000
   -4.7227    0.5421    0.3182 C   0  0  0  0  0  0  0  0  0  0  0  0
   -4.3243   -0.9008    0.5574 C   0  0  0  0  0  0  0  0  0  0  0  0
   -3.2485    0.1558    0.3290 C   0  0  0  0  0  0  0  0  0  0  0  0
   -2.5725    0.1575   -0.9805 N   0  0  0  0  0  0  0  0  0  0  0  0
   -1.4359   -0.7817   -1.0481 C   0  0  0  0  0  0  0  0  0  0  0  0
   -0.1914   -0.4786   -0.1733 C   0  0  0  0  0  0  0  0  0  0  0  0
    0.6144    0.8161   -0.4929 C   0  0  1  0  0  0  0  0  0  0  0  0
   -0.2861    1.9811   -0.2712 N   0  0  0  0  0  0  0  0  0  0  0  0
    1.9127    0.9085    0.3425 C   0  0  0  0  0  0  0  0  0  0  0  0
    3.0773    0.1336   -0.2829 C   0  0  0  0  0  0  0  0  0  0  0  0
    4.3349    0.2013    0.5940 C   0  0  0  0  0  0  0  0  0  0  0  0
    5.4904   -0.5857   -0.0186 C   0  0  0  0  0  0  0  0  0  0  0  0
    0.5912   -1.6562   -0.3603 O   0  0  0  0  0  0  0  0  0  0  0  0
   -0.4748   -0.4163    1.2245 O   0  0  0  0  0  0  0  0  0  0  0  0
   -5.1237    1.1374    1.1328 H   0  0  0  0  0  0  0  0  0  0  0  0
   -5.1935    0.8074   -0.6280 H   0  0  0  0  0  0  0  0  0  0  0  0
   -4.5197   -1.6337   -0.2246 H   0  0  0  0  0  0  0  0  0  0  0  0
   -4.4444   -1.3393    1.5428 H   0  0  0  0  0  0  0  0  0  0  0  0
   -2.6301    0.4651    1.1862 H   0  0  0  0  0  0  0  0  0  0  0  0
   -2.2598    1.1164   -1.2043 H   0  0  0  0  0  0  0  0  0  0  0  0
   -1.1072   -0.8319   -2.1134 H   0  0  0  0  0  0  0  0  0  0  0  0
   -1.7933   -1.8092   -0.8006 H   0  0  0  0  0  0  0  0  0  0  0  0
    0.8689    0.7889   -1.5865 H   0  0  0  0  0  0  0  0  0  0  0  0
    0.1996    2.8521   -0.4670 H   0  0  0  0  0  0  0  0  0  0  0  0
   -0.5908    2.0124    0.7019 H   0  0  0  0  0  0  0  0  0  0  0  0
    1.7135    0.5477    1.3739 H   0  0  0  0  0  0  0  0  0  0  0  0
    2.2073    1.9697    0.4599 H   0  0  0  0  0  0  0  0  0  0  0  0
    3.3007    0.5299   -1.2928 H   0  0  0  0  0  0  0  0  0  0  0  0
    2.7874   -0.9298   -0.4414 H   0  0  0  0  0  0  0  0  0  0  0  0
    4.1124   -0.1884    1.6070 H   0  0  0  0  0  0  0  0  0  0  0  0
    4.6373    1.2574    0.7382 H   0  0  0  0  0  0  0  0  0  0  0  0
    5.7639   -0.2008   -1.0080 H   0  0  0  0  0  0  0  0  0  0  0  0
    6.3855   -0.5297    0.6118 H   0  0  0  0  0  0  0  0  0  0  0  0
    5.2419   -1.6465   -0.1384 H   0  0  0  0  0  0  0  0  0  0  0  0
    1.4503   -1.6195    0.1268 H   0  0  0  0  0  0  0  0  0  0  0  0
   -0.9681   -1.2102    1.5213 H   0  0  0  0  0  0  0  0  0  0  0  0
  1  3  1  0  0  0  0
  1  2  1  0  0  0  0
  1 15  1  0  0  0  0
  2 18  1  0  0  0  0
  3  2  1  0  0  0  0
  3 19  1  0  0  0  0
  4  3  1  0  0  0  0
  5  4  1  0  0  0  0
  5 22  1  0  0  0  0
  5  6  1  0  0  0  0
  6 14  1  0  0  0  0
  7 23  1  6  0  0  0
  7  8  1  0  0  0  0
  7  6  1  0  0  0  0
  7  9  1  0  0  0  0
  8 25  1  0  0  0  0
  9 27  1  0  0  0  0
  9 26  1  0  0  0  0
 10  9  1  0  0  0  0
 10 11  1  0  0  0  0
 11 31  1  0  0  0  0
 11 30  1  0  0  0  0
 12 11  1  0  0  0  0
 12 33  1  0  0  0  0
 13  6  1  0  0  0  0
 13 35  1  0  0  0  0
 14 36  1  0  0  0  0
 16  1  1  0  0  0  0
 17  2  1  0  0  0  0
 20  4  1  0  0  0  0
 21  5  1  0  0  0  0
 24  8  1  0  0  0  0
 28 10  1  0  0  0  0
 29 10  1  0  0  0  0
 32 12  1  0  0  0  0
 34 12  1  0  0  0  0
M  END
