omegacsd_CEJTIU_11.log
 OpenBabel10161801213D
Gaussian 16 # PM6 Opt
 41 42  0  0  0  0  0  0  0  0999 V2000
   -6.8667   -0.6609   -0.9678 C   0  0  0  0  0  0  0  0  0  0  0  0
   -6.1227    0.2516   -0.0526 N   0  0  0  0  0  0  0  0  0  0  0  0
   -6.6264    1.6497   -0.1681 C   0  0  0  0  0  0  0  0  0  0  0  0
   -4.6982    0.0997   -0.0553 C   0  0  0  0  0  0  0  0  0  0  0  0
   -4.1196   -1.1686   -0.2981 C   0  0  0  0  0  0  0  0  0  0  0  0
   -2.7496   -1.3642   -0.1674 C   0  0  0  0  0  0  0  0  0  0  0  0
   -1.9177   -0.2903    0.2073 C   0  0  0  0  0  0  0  0  0  0  0  0
   -2.4759    0.9740    0.4528 C   0  0  0  0  0  0  0  0  0  0  0  0
   -3.8486    1.1641    0.3196 C   0  0  0  0  0  0  0  0  0  0  0  0
   -0.5110   -0.5638    0.3192 N   0  0  0  0  0  0  0  0  0  0  0  0
    0.4431    0.3885    0.6508 C   0  0  0  0  0  0  0  0  0  0  0  0
    0.2559    1.5698    0.8870 O   0  0  0  0  0  0  0  0  0  0  0  0
    1.8225   -0.0667    0.7334 N   0  0  0  0  0  0  0  0  0  0  0  0
    2.3163   -1.3639    0.5001 C   0  0  0  0  0  0  0  0  0  0  0  0
    1.5677   -2.2766    0.1900 O   0  0  0  0  0  0  0  0  0  0  0  0
    3.8052   -1.5575    0.6987 C   0  0  0  0  0  0  0  0  0  0  0  0
    4.6443   -0.4794    0.0750 C   0  0  0  0  0  0  0  0  0  0  0  0
    4.7438   -0.3945   -1.3222 C   0  0  0  0  0  0  0  0  0  0  0  0
    5.5240    0.6071   -1.9046 C   0  0  0  0  0  0  0  0  0  0  0  0
    6.2073    1.5250   -1.0996 C   0  0  0  0  0  0  0  0  0  0  0  0
    6.1087    1.4391    0.2923 C   0  0  0  0  0  0  0  0  0  0  0  0
    5.3282    0.4405    0.8826 C   0  0  0  0  0  0  0  0  0  0  0  0
   -6.6434   -1.7095   -0.7032 H   0  0  0  0  0  0  0  0  0  0  0  0
   -6.6348   -0.5117   -2.0334 H   0  0  0  0  0  0  0  0  0  0  0  0
   -7.9501   -0.5203   -0.8217 H   0  0  0  0  0  0  0  0  0  0  0  0
   -6.3513    2.1501   -1.1093 H   0  0  0  0  0  0  0  0  0  0  0  0
   -6.2400    2.2482    0.6758 H   0  0  0  0  0  0  0  0  0  0  0  0
   -7.7250    1.6503   -0.0798 H   0  0  0  0  0  0  0  0  0  0  0  0
   -4.7479   -2.0137   -0.5769 H   0  0  0  0  0  0  0  0  0  0  0  0
   -2.3287   -2.3514   -0.3562 H   0  0  0  0  0  0  0  0  0  0  0  0
   -1.8382    1.8156    0.7473 H   0  0  0  0  0  0  0  0  0  0  0  0
   -4.2566    2.1531    0.5228 H   0  0  0  0  0  0  0  0  0  0  0  0
   -0.2119   -1.5437    0.1364 H   0  0  0  0  0  0  0  0  0  0  0  0
    2.4844    0.6951    0.9551 H   0  0  0  0  0  0  0  0  0  0  0  0
    4.0863   -2.5523    0.2736 H   0  0  0  0  0  0  0  0  0  0  0  0
    4.0115   -1.6587    1.7883 H   0  0  0  0  0  0  0  0  0  0  0  0
    4.2128   -1.1065   -1.9529 H   0  0  0  0  0  0  0  0  0  0  0  0
    5.5991    0.6733   -2.9898 H   0  0  0  0  0  0  0  0  0  0  0  0
    6.8140    2.3051   -1.5566 H   0  0  0  0  0  0  0  0  0  0  0  0
    6.6404    2.1528    0.9210 H   0  0  0  0  0  0  0  0  0  0  0  0
    5.2606    0.3797    1.9671 H   0  0  0  0  0  0  0  0  0  0  0  0
  1 25  1  0  0  0  0
  1 23  1  0  0  0  0
  1  2  1  0  0  0  0
  3 28  1  0  0  0  0
  3  2  1  0  0  0  0
  3 27  1  0  0  0  0
  4  2  1  0  0  0  0
  4  9  2  0  0  0  0
  5  6  2  0  0  0  0
  5  4  1  0  0  0  0
  6  7  1  0  0  0  0
  7 10  1  0  0  0  0
  7  8  2  0  0  0  0
  8 31  1  0  0  0  0
  9  8  1  0  0  0  0
  9 32  1  0  0  0  0
 10 11  1  0  0  0  0
 11 13  1  0  0  0  0
 11 12  2  0  0  0  0
 13 34  1  0  0  0  0
 14 16  1  0  0  0  0
 14 13  1  0  0  0  0
 15 14  2  0  0  0  0
 16 36  1  0  0  0  0
 17 16  1  0  0  0  0
 17 22  2  0  0  0  0
 18 17  1  0  0  0  0
 19 18  2  0  0  0  0
 19 20  1  0  0  0  0
 20 21  2  0  0  0  0
 21 22  1  0  0  0  0
 21 40  1  0  0  0  0
 22 41  1  0  0  0  0
 24  1  1  0  0  0  0
 26  3  1  0  0  0  0
 29  5  1  0  0  0  0
 30  6  1  0  0  0  0
 33 10  1  0  0  0  0
 35 16  1  0  0  0  0
 37 18  1  0  0  0  0
 38 19  1  0  0  0  0
 39 20  1  0  0  0  0
M  END
