omegacsd_CUHNEY10_05.log
 OpenBabel10161801213D
Gaussian 16 # PM6 Opt
 44 47  0  0  1  0  0  0  0  0999 V2000
   -4.6469    2.8737    0.4885 Cl  0  0  0  0  0  0  0  0  0  0  0  0
   -2.9938    2.4720    0.3097 C   0  0  0  0  0  0  0  0  0  0  0  0
   -2.4368    1.4511    1.0980 C   0  0  0  0  0  0  0  0  0  0  0  0
   -1.1359    1.0938    0.9863 N   0  0  0  0  0  0  0  0  0  0  0  0
   -0.3528    1.7675    0.0810 C   0  0  0  0  0  0  0  0  0  0  0  0
    1.0122    1.3663    0.0440 N   0  0  0  0  0  0  0  0  0  0  0  0
    2.0507    1.9925   -0.7437 C   0  0  0  0  0  0  0  0  0  0  0  0
    1.8765    2.9061   -1.4997 O   0  0  0  0  0  0  0  0  0  0  0  0
    3.3058    1.2628   -0.3451 C   0  0  0  0  0  0  0  0  0  0  0  0
    4.5576    1.5194   -0.7476 N   0  0  0  0  0  0  0  0  0  0  0  0
    5.5168    0.7099   -0.2048 C   0  0  0  0  0  0  0  0  0  0  0  0
    5.2086   -0.3117    0.7180 C   0  0  0  0  0  0  0  0  0  0  0  0
    3.9259   -0.5708    1.1214 N   0  0  0  0  0  0  0  0  0  0  0  0
    2.9882    0.2166    0.5793 C   0  0  0  0  0  0  0  0  0  0  0  0
    1.4825    0.1589    0.8039 C   0  0  2  0  0  0  0  0  0  0  0  0
    0.9998   -0.9766    0.0564 O   0  0  0  0  0  0  0  0  0  0  0  0
    0.3493   -1.9860    0.7946 C   0  0  0  0  0  0  0  0  0  0  0  0
    0.2475   -1.9285    1.9986 O   0  0  0  0  0  0  0  0  0  0  0  0
    0.0318   -3.0549   -0.0556 N   0  0  0  0  0  0  0  0  0  0  0  0
   -0.9687   -4.0283    0.4848 C   0  0  0  0  0  0  0  0  0  0  0  0
   -2.2513   -4.0840   -0.3760 C   0  0  0  0  0  0  0  0  0  0  0  0
   -2.6282   -2.8016   -1.0330 N   0  0  0  0  0  0  0  0  0  0  0  0
   -1.5170   -2.2939   -1.8979 C   0  0  0  0  0  0  0  0  0  0  0  0
   -0.1056   -2.7950   -1.5139 C   0  0  0  0  0  0  0  0  0  0  0  0
   -3.0698   -1.7829   -0.0353 C   0  0  0  0  0  0  0  0  0  0  0  0
   -0.8555    2.8044   -0.7399 C   0  0  0  0  0  0  0  0  0  0  0  0
   -2.1968    3.1550   -0.6170 C   0  0  0  0  0  0  0  0  0  0  0  0
   -3.0323    0.9024    1.8409 H   0  0  0  0  0  0  0  0  0  0  0  0
    6.5479    0.9041   -0.5277 H   0  0  0  0  0  0  0  0  0  0  0  0
    5.9874   -0.9494    1.1569 H   0  0  0  0  0  0  0  0  0  0  0  0
    1.1318    0.1336    1.8678 H   0  0  0  0  0  0  0  0  0  0  0  0
   -0.4683   -5.0230    0.5012 H   0  0  0  0  0  0  0  0  0  0  0  0
   -1.2113   -3.7794    1.5441 H   0  0  0  0  0  0  0  0  0  0  0  0
   -3.1046   -4.4291    0.2469 H   0  0  0  0  0  0  0  0  0  0  0  0
   -2.1353   -4.8404   -1.1850 H   0  0  0  0  0  0  0  0  0  0  0  0
   -1.5284   -1.1839   -1.9280 H   0  0  0  0  0  0  0  0  0  0  0  0
   -1.7558   -2.6339   -2.9321 H   0  0  0  0  0  0  0  0  0  0  0  0
    0.1242   -3.7530   -2.0336 H   0  0  0  0  0  0  0  0  0  0  0  0
    0.6700   -2.0623   -1.8351 H   0  0  0  0  0  0  0  0  0  0  0  0
   -3.9266   -2.1836    0.5300 H   0  0  0  0  0  0  0  0  0  0  0  0
   -2.3006   -1.4647    0.6852 H   0  0  0  0  0  0  0  0  0  0  0  0
   -3.4300   -0.8909   -0.5737 H   0  0  0  0  0  0  0  0  0  0  0  0
   -0.2063    3.3237   -1.4538 H   0  0  0  0  0  0  0  0  0  0  0  0
   -2.6216    3.9511   -1.2334 H   0  0  0  0  0  0  0  0  0  0  0  0
  2  1  1  0  0  0  0
  2  3  2  0  0  0  0
  3 28  1  0  0  0  0
  4  3  1  0  0  0  0
  5  4  2  0  0  0  0
  6  5  1  0  0  0  0
  6 15  1  0  0  0  0
  7  9  1  0  0  0  0
  7  6  1  0  0  0  0
  8  7  2  0  0  0  0
  9 14  1  0  0  0  0
 10  9  2  0  0  0  0
 10 11  1  0  0  0  0
 11 12  2  0  0  0  0
 12 13  1  0  0  0  0
 12 30  1  0  0  0  0
 14 15  1  0  0  0  0
 14 13  2  0  0  0  0
 15 31  1  1  0  0  0
 16 17  1  0  0  0  0
 16 15  1  0  0  0  0
 17 18  2  0  0  0  0
 19 20  1  0  0  0  0
 19 17  1  0  0  0  0
 20 32  1  0  0  0  0
 20 33  1  0  0  0  0
 21 34  1  0  0  0  0
 21 20  1  0  0  0  0
 22 21  1  0  0  0  0
 22 25  1  0  0  0  0
 23 24  1  0  0  0  0
 23 22  1  0  0  0  0
 24 19  1  0  0  0  0
 25 40  1  0  0  0  0
 25 41  1  0  0  0  0
 26 27  2  0  0  0  0
 26  5  1  0  0  0  0
 27  2  1  0  0  0  0
 29 11  1  0  0  0  0
 35 21  1  0  0  0  0
 36 23  1  0  0  0  0
 37 23  1  0  0  0  0
 38 24  1  0  0  0  0
 39 24  1  0  0  0  0
 42 25  1  0  0  0  0
 43 26  1  0  0  0  0
 44 27  1  0  0  0  0
M  END
