omegapdb_2f7p_10.log
 OpenBabel10161801213D
Gaussian 16 # PM6 Opt
 34 35  0  0  1  0  0  0  0  0999 V2000
   -0.5804   -0.4480   -0.0503 C   0  0  1  0  0  0  0  0  0  0  0  0
    0.0669   -0.9119   -1.2978 N   0  0  0  0  0  0  0  0  0  0  0  0
    1.4022   -1.5372   -1.0925 C   0  0  0  0  0  0  0  0  0  0  0  0
    2.4609   -0.6981   -0.4132 C   0  0  0  0  0  0  0  0  0  0  0  0
    3.3078   -1.2988    0.5310 C   0  0  0  0  0  0  0  0  0  0  0  0
    4.3161   -0.5522    1.1465 C   0  0  0  0  0  0  0  0  0  0  0  0
    4.4852    0.7986    0.8265 C   0  0  0  0  0  0  0  0  0  0  0  0
    3.6408    1.4000   -0.1119 C   0  0  0  0  0  0  0  0  0  0  0  0
    2.6334    0.6557   -0.7319 C   0  0  0  0  0  0  0  0  0  0  0  0
   -0.4638    1.0936    0.2184 C   0  0  1  0  0  0  0  0  0  0  0  0
   -0.1623    1.7616   -1.0004 O   0  0  0  0  0  0  0  0  0  0  0  0
   -1.8378    1.5481    0.7989 C   0  0  1  0  0  0  0  0  0  0  0  0
   -2.3204    2.5788   -0.0646 O   0  0  0  0  0  0  0  0  0  0  0  0
   -2.7627    0.2939    0.7927 C   0  0  1  0  0  0  0  0  0  0  0  0
   -4.0204    0.7650    0.2911 O   0  0  0  0  0  0  0  0  0  0  0  0
   -2.0997   -0.7051   -0.1622 C   0  0  2  0  0  0  0  0  0  0  0  0
   -2.5224   -2.3922    0.3364 S   0  0  0  0  0  0  0  0  0  0  0  0
   -0.1603   -0.9869    0.8384 H   0  0  0  0  0  0  0  0  0  0  0  0
    0.1391   -0.1208   -1.9616 H   0  0  0  0  0  0  0  0  0  0  0  0
    1.2456   -2.4904   -0.5353 H   0  0  0  0  0  0  0  0  0  0  0  0
    1.7769   -1.8384   -2.1019 H   0  0  0  0  0  0  0  0  0  0  0  0
    3.1852   -2.3493    0.7869 H   0  0  0  0  0  0  0  0  0  0  0  0
    4.9712   -1.0243    1.8766 H   0  0  0  0  0  0  0  0  0  0  0  0
    5.2706    1.3791    1.3057 H   0  0  0  0  0  0  0  0  0  0  0  0
    3.7659    2.4525   -0.3629 H   0  0  0  0  0  0  0  0  0  0  0  0
    1.9708    1.1431   -1.4525 H   0  0  0  0  0  0  0  0  0  0  0  0
    0.3901    1.3281    0.8879 H   0  0  0  0  0  0  0  0  0  0  0  0
   -0.9439    2.3224   -1.2936 H   0  0  0  0  0  0  0  0  0  0  0  0
   -1.7501    2.0113    1.8020 H   0  0  0  0  0  0  0  0  0  0  0  0
   -3.2358    2.3553   -0.4020 H   0  0  0  0  0  0  0  0  0  0  0  0
   -2.9342   -0.0999    1.8180 H   0  0  0  0  0  0  0  0  0  0  0  0
   -4.5684    0.0198   -0.0377 H   0  0  0  0  0  0  0  0  0  0  0  0
   -2.4449   -0.5279   -1.2109 H   0  0  0  0  0  0  0  0  0  0  0  0
   -1.7774   -3.0603   -0.5765 H   0  0  0  0  0  0  0  0  0  0  0  0
  1 10  1  0  0  0  0
  1 18  1  1  0  0  0
  2  3  1  0  0  0  0
  2  1  1  0  0  0  0
  3 20  1  0  0  0  0
  3  4  1  0  0  0  0
  4  5  1  0  0  0  0
  5 22  1  0  0  0  0
  5  6  2  0  0  0  0
  6 23  1  0  0  0  0
  7  6  1  0  0  0  0
  7 24  1  0  0  0  0
  8  7  2  0  0  0  0
  9  4  2  0  0  0  0
  9  8  1  0  0  0  0
 10 12  1  0  0  0  0
 10 27  1  1  0  0  0
 11 10  1  0  0  0  0
 12 29  1  1  0  0  0
 13 12  1  0  0  0  0
 14 12  1  0  0  0  0
 14 31  1  1  0  0  0
 15 14  1  0  0  0  0
 16 33  1  6  0  0  0
 16  1  1  0  0  0  0
 16 17  1  0  0  0  0
 16 14  1  0  0  0  0
 19  2  1  0  0  0  0
 21  3  1  0  0  0  0
 25  8  1  0  0  0  0
 26  9  1  0  0  0  0
 28 11  1  0  0  0  0
 30 13  1  0  0  0  0
 32 15  1  0  0  0  0
 34 17  1  0  0  0  0
M  END
