omegacsd_CDBMPI10_07.log
 OpenBabel10161801213D
Gaussian 16 # PM6 Opt
 46 48  0  0  1  0  0  0  0  0999 V2000
   -3.0544    2.1106   -0.8636 O   0  0  0  0  0  0  0  0  0  0  0  0
   -2.5279    1.1614   -0.3035 C   0  0  0  0  0  0  0  0  0  0  0  0
   -1.3322    1.3445    0.4017 N   0  0  0  0  0  0  0  0  0  0  0  0
   -0.5854    0.2494    1.0850 C   0  0  1  0  0  0  0  0  0  0  0  0
    0.9120    0.6437    1.2472 C   0  0  0  0  0  0  0  0  0  0  0  0
    1.4247    1.2886    0.0212 N   0  0  0  0  0  0  0  0  0  0  0  0
    0.7070    2.5287   -0.4232 C   0  0  1  0  0  0  0  0  0  0  0  0
   -0.6467    2.6585    0.3218 C   0  0  0  0  0  0  0  0  0  0  0  0
    1.5770    3.7609   -0.1717 C   0  0  0  0  0  0  0  0  0  0  0  0
    2.3762    0.7130   -0.8276 C   0  0  0  0  0  0  0  0  0  0  0  0
    2.6742    1.2680   -1.8733 O   0  0  0  0  0  0  0  0  0  0  0  0
    3.0148   -0.5664   -0.3708 C   0  0  0  0  0  0  0  0  0  0  0  0
    2.5043   -1.7909   -0.8183 C   0  0  0  0  0  0  0  0  0  0  0  0
    3.1282   -2.9803   -0.4307 C   0  0  0  0  0  0  0  0  0  0  0  0
    4.2569   -2.9435    0.3952 C   0  0  0  0  0  0  0  0  0  0  0  0
    4.7671   -1.7168    0.8332 C   0  0  0  0  0  0  0  0  0  0  0  0
    4.1481   -0.5232    0.4502 C   0  0  0  0  0  0  0  0  0  0  0  0
   -1.1911   -0.0398    2.4616 C   0  0  0  0  0  0  0  0  0  0  0  0
   -3.1234   -0.2154   -0.3045 C   0  0  0  0  0  0  0  0  0  0  0  0
   -4.1654   -0.5178    0.5802 C   0  0  0  0  0  0  0  0  0  0  0  0
   -4.7541   -1.7856    0.5437 C   0  0  0  0  0  0  0  0  0  0  0  0
   -4.3086   -2.7397   -0.3770 C   0  0  0  0  0  0  0  0  0  0  0  0
   -3.2760   -2.4273   -1.2680 C   0  0  0  0  0  0  0  0  0  0  0  0
   -2.6809   -1.1630   -1.2360 C   0  0  0  0  0  0  0  0  0  0  0  0
   -0.6481   -0.6729    0.4475 H   0  0  0  0  0  0  0  0  0  0  0  0
    1.5038   -0.2622    1.5032 H   0  0  0  0  0  0  0  0  0  0  0  0
    1.0393    1.3496    2.1005 H   0  0  0  0  0  0  0  0  0  0  0  0
    0.5191    2.4282   -1.5297 H   0  0  0  0  0  0  0  0  0  0  0  0
   -1.3001    3.3876   -0.2195 H   0  0  0  0  0  0  0  0  0  0  0  0
   -0.5076    3.0591    1.3489 H   0  0  0  0  0  0  0  0  0  0  0  0
    1.8640    3.8665    0.8790 H   0  0  0  0  0  0  0  0  0  0  0  0
    2.5072    3.6954   -0.7585 H   0  0  0  0  0  0  0  0  0  0  0  0
    1.0667    4.6800   -0.4801 H   0  0  0  0  0  0  0  0  0  0  0  0
    1.6345   -1.8147   -1.4742 H   0  0  0  0  0  0  0  0  0  0  0  0
    2.7385   -3.9360   -0.7784 H   0  0  0  0  0  0  0  0  0  0  0  0
    4.7430   -3.8719    0.6928 H   0  0  0  0  0  0  0  0  0  0  0  0
    5.6516   -1.6898    1.4682 H   0  0  0  0  0  0  0  0  0  0  0  0
    4.5495    0.4352    0.7791 H   0  0  0  0  0  0  0  0  0  0  0  0
   -0.6067   -0.7864    3.0102 H   0  0  0  0  0  0  0  0  0  0  0  0
   -1.2518    0.8622    3.0825 H   0  0  0  0  0  0  0  0  0  0  0  0
   -2.2130   -0.4315    2.3719 H   0  0  0  0  0  0  0  0  0  0  0  0
   -4.5233    0.2356    1.2822 H   0  0  0  0  0  0  0  0  0  0  0  0
   -5.5664   -2.0262    1.2282 H   0  0  0  0  0  0  0  0  0  0  0  0
   -4.7714   -3.7254   -0.4056 H   0  0  0  0  0  0  0  0  0  0  0  0
   -2.9396   -3.1671   -1.9931 H   0  0  0  0  0  0  0  0  0  0  0  0
   -1.8878   -0.9110   -1.9402 H   0  0  0  0  0  0  0  0  0  0  0  0
  1  2  2  0  0  0  0
  2  3  1  0  0  0  0
  3  4  1  0  0  0  0
  4 25  1  6  0  0  0
  4  5  1  0  0  0  0
  4 18  1  0  0  0  0
  5 26  1  0  0  0  0
  5 27  1  0  0  0  0
  6  5  1  0  0  0  0
  7 28  1  6  0  0  0
  7  9  1  0  0  0  0
  7  6  1  0  0  0  0
  7  8  1  0  0  0  0
  8  3  1  0  0  0  0
  8 30  1  0  0  0  0
  9 31  1  0  0  0  0
 10 12  1  0  0  0  0
 10  6  1  0  0  0  0
 11 10  2  0  0  0  0
 12 17  2  0  0  0  0
 13 14  2  0  0  0  0
 13 12  1  0  0  0  0
 14 15  1  0  0  0  0
 15 36  1  0  0  0  0
 15 16  2  0  0  0  0
 16 37  1  0  0  0  0
 17 38  1  0  0  0  0
 17 16  1  0  0  0  0
 18 39  1  0  0  0  0
 18 40  1  0  0  0  0
 19  2  1  0  0  0  0
 19 20  2  0  0  0  0
 20 42  1  0  0  0  0
 21 20  1  0  0  0  0
 21 43  1  0  0  0  0
 22 21  2  0  0  0  0
 23 24  2  0  0  0  0
 23 22  1  0  0  0  0
 24 19  1  0  0  0  0
 29  8  1  0  0  0  0
 32  9  1  0  0  0  0
 33  9  1  0  0  0  0
 34 13  1  0  0  0  0
 35 14  1  0  0  0  0
 41 18  1  0  0  0  0
 44 22  1  0  0  0  0
 45 23  1  0  0  0  0
 46 24  1  0  0  0  0
M  END
