omegacsd_CUHNEY10_09.log
 OpenBabel10161801213D
Gaussian 16 # PM6 Opt
 44 47  0  0  1  0  0  0  0  0999 V2000
   -4.6469    2.8738    0.4883 Cl  0  0  0  0  0  0  0  0  0  0  0  0
   -2.9937    2.4722    0.3096 C   0  0  0  0  0  0  0  0  0  0  0  0
   -2.4368    1.4512    1.0979 C   0  0  0  0  0  0  0  0  0  0  0  0
   -1.1359    1.0939    0.9862 N   0  0  0  0  0  0  0  0  0  0  0  0
   -0.3527    1.7676    0.0811 C   0  0  0  0  0  0  0  0  0  0  0  0
    1.0123    1.3665    0.0442 N   0  0  0  0  0  0  0  0  0  0  0  0
    2.0508    1.9928   -0.7434 C   0  0  0  0  0  0  0  0  0  0  0  0
    1.8767    2.9064   -1.4993 O   0  0  0  0  0  0  0  0  0  0  0  0
    3.3059    1.2628   -0.3450 C   0  0  0  0  0  0  0  0  0  0  0  0
    4.5576    1.5194   -0.7474 N   0  0  0  0  0  0  0  0  0  0  0  0
    5.5168    0.7096   -0.2049 C   0  0  0  0  0  0  0  0  0  0  0  0
    5.2085   -0.3122    0.7177 C   0  0  0  0  0  0  0  0  0  0  0  0
    3.9258   -0.5712    1.1212 N   0  0  0  0  0  0  0  0  0  0  0  0
    2.9881    0.2165    0.5792 C   0  0  0  0  0  0  0  0  0  0  0  0
    1.4825    0.1589    0.8039 C   0  0  2  0  0  0  0  0  0  0  0  0
    0.9995   -0.9764    0.0561 O   0  0  0  0  0  0  0  0  0  0  0  0
    0.3493   -1.9859    0.7943 C   0  0  0  0  0  0  0  0  0  0  0  0
    0.2478   -1.9286    1.9984 O   0  0  0  0  0  0  0  0  0  0  0  0
    0.0319   -3.0548   -0.0560 N   0  0  0  0  0  0  0  0  0  0  0  0
   -0.1060   -2.7946   -1.5142 C   0  0  0  0  0  0  0  0  0  0  0  0
   -1.5176   -2.2936   -1.8976 C   0  0  0  0  0  0  0  0  0  0  0  0
   -2.6284   -2.8019   -1.0326 N   0  0  0  0  0  0  0  0  0  0  0  0
   -2.2510   -4.0843   -0.3761 C   0  0  0  0  0  0  0  0  0  0  0  0
   -0.9683   -4.0285    0.4844 C   0  0  0  0  0  0  0  0  0  0  0  0
   -3.0700   -1.7836   -0.0344 C   0  0  0  0  0  0  0  0  0  0  0  0
   -0.8553    2.8047   -0.7398 C   0  0  0  0  0  0  0  0  0  0  0  0
   -2.1967    3.1553   -0.6169 C   0  0  0  0  0  0  0  0  0  0  0  0
   -3.0324    0.9024    1.8407 H   0  0  0  0  0  0  0  0  0  0  0  0
    6.5479    0.9037   -0.5277 H   0  0  0  0  0  0  0  0  0  0  0  0
    5.9872   -0.9500    1.1565 H   0  0  0  0  0  0  0  0  0  0  0  0
    1.1318    0.1334    1.8677 H   0  0  0  0  0  0  0  0  0  0  0  0
    0.6693   -2.0617   -1.8355 H   0  0  0  0  0  0  0  0  0  0  0  0
    0.1237   -3.7525   -2.0342 H   0  0  0  0  0  0  0  0  0  0  0  0
   -1.5292   -1.1836   -1.9273 H   0  0  0  0  0  0  0  0  0  0  0  0
   -1.7566   -2.6333   -2.9318 H   0  0  0  0  0  0  0  0  0  0  0  0
   -2.1349   -4.8405   -1.1854 H   0  0  0  0  0  0  0  0  0  0  0  0
   -3.1041   -4.4300    0.2468 H   0  0  0  0  0  0  0  0  0  0  0  0
   -0.4676   -5.0231    0.5007 H   0  0  0  0  0  0  0  0  0  0  0  0
   -1.2107   -3.7798    1.5439 H   0  0  0  0  0  0  0  0  0  0  0  0
   -3.9262   -2.1848    0.5314 H   0  0  0  0  0  0  0  0  0  0  0  0
   -3.4311   -0.8917   -0.5725 H   0  0  0  0  0  0  0  0  0  0  0  0
   -2.3005   -1.4650    0.6857 H   0  0  0  0  0  0  0  0  0  0  0  0
   -0.2060    3.3241   -1.4535 H   0  0  0  0  0  0  0  0  0  0  0  0
   -2.6214    3.9514   -1.2333 H   0  0  0  0  0  0  0  0  0  0  0  0
  2  1  1  0  0  0  0
  2  3  2  0  0  0  0
  3 28  1  0  0  0  0
  4  3  1  0  0  0  0
  5  4  2  0  0  0  0
  6  5  1  0  0  0  0
  6 15  1  0  0  0  0
  7  9  1  0  0  0  0
  7  6  1  0  0  0  0
  8  7  2  0  0  0  0
  9 14  1  0  0  0  0
 10  9  2  0  0  0  0
 10 11  1  0  0  0  0
 11 12  2  0  0  0  0
 12 13  1  0  0  0  0
 12 30  1  0  0  0  0
 14 15  1  0  0  0  0
 14 13  2  0  0  0  0
 15 31  1  1  0  0  0
 16 17  1  0  0  0  0
 16 15  1  0  0  0  0
 17 18  2  0  0  0  0
 19 24  1  0  0  0  0
 19 17  1  0  0  0  0
 20 19  1  0  0  0  0
 21 20  1  0  0  0  0
 21 22  1  0  0  0  0
 22 23  1  0  0  0  0
 22 25  1  0  0  0  0
 23 37  1  0  0  0  0
 23 24  1  0  0  0  0
 24 38  1  0  0  0  0
 24 39  1  0  0  0  0
 25 40  1  0  0  0  0
 25 42  1  0  0  0  0
 26 27  2  0  0  0  0
 26  5  1  0  0  0  0
 27  2  1  0  0  0  0
 29 11  1  0  0  0  0
 32 20  1  0  0  0  0
 33 20  1  0  0  0  0
 34 21  1  0  0  0  0
 35 21  1  0  0  0  0
 36 23  1  0  0  0  0
 41 25  1  0  0  0  0
 43 26  1  0  0  0  0
 44 27  1  0  0  0  0
M  END
