omegapdb_1v2k_08.log
 OpenBabel10161801213D
Gaussian 16 # PM6 Opt
 61 65  0  0  0  0  0  0  0  0999 V2000
   -7.5114    3.7390   -0.1943 N   0  0  0  0  0  0  0  0  0  0  0  0
   -8.0163    2.4752   -0.2288 C   0  0  0  0  0  0  0  0  0  0  0  0
   -7.2647    1.3370    0.0705 C   0  0  0  0  0  0  0  0  0  0  0  0
   -5.9057    1.4846    0.4448 C   0  0  0  0  0  0  0  0  0  0  0  0
   -5.3752    2.7985    0.4785 C   0  0  0  0  0  0  0  0  0  0  0  0
   -6.2046    3.8764    0.1624 C   0  0  0  0  0  0  0  0  0  0  0  0
   -5.1472    0.3782    0.8917 N   0  0  0  0  0  0  0  0  0  0  0  0
   -3.6581    0.4905    0.8773 C   0  0  0  0  0  0  0  0  0  0  0  0
   -3.0777    0.2209   -0.5197 C   0  0  0  0  0  0  0  0  0  0  0  0
   -3.5209   -1.1470   -1.0709 C   0  0  0  0  0  0  0  0  0  0  0  0
   -5.0479   -1.3247   -0.9548 C   0  0  0  0  0  0  0  0  0  0  0  0
   -5.5628   -0.9868    0.4556 C   0  0  0  0  0  0  0  0  0  0  0  0
   -2.7995   -2.2629   -0.3113 C   0  0  0  0  0  0  0  0  0  0  0  0
   -3.2847   -2.8647    0.6366 O   0  0  0  0  0  0  0  0  0  0  0  0
   -1.5394   -2.6796   -0.7847 N   0  0  0  0  0  0  0  0  0  0  0  0
   -0.7374   -1.9122   -1.7730 C   0  0  0  0  0  0  0  0  0  0  0  0
    0.7793   -2.0881   -1.5242 C   0  0  0  0  0  0  0  0  0  0  0  0
    1.1349   -2.0177   -0.0843 N   0  0  0  0  0  0  0  0  0  0  0  0
    0.4439   -3.0732    0.7162 C   0  0  0  0  0  0  0  0  0  0  0  0
   -0.7843   -3.6847    0.0058 C   0  0  0  0  0  0  0  0  0  0  0  0
    1.1002   -0.4179    0.5935 S   0  0  0  0  0  0  0  0  0  0  0  0
    0.1263    0.3778   -0.1453 O   0  0  0  0  0  0  0  0  0  0  0  0
    0.9495   -0.5777    2.0240 O   0  0  0  0  0  0  0  0  0  0  0  0
    2.6845    0.1689    0.2218 C   0  0  0  0  0  0  0  0  0  0  0  0
    3.7843   -0.3085    0.8928 C   0  0  0  0  0  0  0  0  0  0  0  0
    5.0893    0.1841    0.5823 C   0  0  0  0  0  0  0  0  0  0  0  0
    5.2319    1.1766   -0.4258 C   0  0  0  0  0  0  0  0  0  0  0  0
    4.0663    1.6614   -1.0997 C   0  0  0  0  0  0  0  0  0  0  0  0
    2.8255    1.1703   -0.7807 C   0  0  0  0  0  0  0  0  0  0  0  0
    6.5376    1.6699   -0.7413 C   0  0  0  0  0  0  0  0  0  0  0  0
    7.6191    1.1733   -0.0600 C   0  0  0  0  0  0  0  0  0  0  0  0
    7.4973    0.1815    0.9556 C   0  0  0  0  0  0  0  0  0  0  0  0
    6.2516   -0.2999    1.2669 C   0  0  0  0  0  0  0  0  0  0  0  0
    9.2000    1.7537   -0.4262 Cl  0  0  0  0  0  0  0  0  0  0  0  0
   -9.0714    2.3926   -0.5148 H   0  0  0  0  0  0  0  0  0  0  0  0
   -7.7261    0.3545    0.0320 H   0  0  0  0  0  0  0  0  0  0  0  0
   -4.3407    2.9725    0.7616 H   0  0  0  0  0  0  0  0  0  0  0  0
   -5.8241    4.9042    0.1864 H   0  0  0  0  0  0  0  0  0  0  0  0
   -3.3445    1.4922    1.2448 H   0  0  0  0  0  0  0  0  0  0  0  0
   -3.2652   -0.2510    1.6132 H   0  0  0  0  0  0  0  0  0  0  0  0
   -3.4024    1.0167   -1.2187 H   0  0  0  0  0  0  0  0  0  0  0  0
   -1.9639    0.2951   -0.4801 H   0  0  0  0  0  0  0  0  0  0  0  0
   -3.2583   -1.2031   -2.1566 H   0  0  0  0  0  0  0  0  0  0  0  0
   -5.3290   -2.3658   -1.2059 H   0  0  0  0  0  0  0  0  0  0  0  0
   -5.5438   -0.6745   -1.7018 H   0  0  0  0  0  0  0  0  0  0  0  0
   -6.6675   -1.0869    0.5069 H   0  0  0  0  0  0  0  0  0  0  0  0
   -5.1388   -1.7152    1.1945 H   0  0  0  0  0  0  0  0  0  0  0  0
   -0.9893   -0.8212   -1.7103 H   0  0  0  0  0  0  0  0  0  0  0  0
   -0.9975   -2.2631   -2.7959 H   0  0  0  0  0  0  0  0  0  0  0  0
    1.3476   -1.3182   -2.0906 H   0  0  0  0  0  0  0  0  0  0  0  0
    1.1252   -3.0739   -1.9150 H   0  0  0  0  0  0  0  0  0  0  0  0
    0.1484   -2.6790    1.7197 H   0  0  0  0  0  0  0  0  0  0  0  0
    1.1931   -3.8763    0.9083 H   0  0  0  0  0  0  0  0  0  0  0  0
   -0.4727   -4.5021   -0.6810 H   0  0  0  0  0  0  0  0  0  0  0  0
   -1.4685   -4.1432    0.7643 H   0  0  0  0  0  0  0  0  0  0  0  0
    3.6849   -1.0674    1.6775 H   0  0  0  0  0  0  0  0  0  0  0  0
    4.1838    2.4301   -1.8637 H   0  0  0  0  0  0  0  0  0  0  0  0
    1.9267    1.5486   -1.2830 H   0  0  0  0  0  0  0  0  0  0  0  0
    6.6508    2.4312   -1.5137 H   0  0  0  0  0  0  0  0  0  0  0  0
    8.3929   -0.1745    1.4666 H   0  0  0  0  0  0  0  0  0  0  0  0
    6.1261   -1.0582    2.0420 H   0  0  0  0  0  0  0  0  0  0  0  0
  1  6  1  0  0  0  0
  2  1  2  0  0  0  0
  2  3  1  0  0  0  0
  3  4  2  0  0  0  0
  4  5  1  0  0  0  0
  4  7  1  0  0  0  0
  5 37  1  0  0  0  0
  6 38  1  0  0  0  0
  6  5  2  0  0  0  0
  8  7  1  0  0  0  0
  8 39  1  0  0  0  0
  8 40  1  0  0  0  0
  9 42  1  0  0  0  0
  9  8  1  0  0  0  0
 10 11  1  0  0  0  0
 10  9  1  0  0  0  0
 10 13  1  0  0  0  0
 11 12  1  0  0  0  0
 12 46  1  0  0  0  0
 12  7  1  0  0  0  0
 12 47  1  0  0  0  0
 13 14  2  0  0  0  0
 15 13  1  0  0  0  0
 15 20  1  0  0  0  0
 16 48  1  0  0  0  0
 16 17  1  0  0  0  0
 16 15  1  0  0  0  0
 17 18  1  0  0  0  0
 18 21  1  0  0  0  0
 18 19  1  0  0  0  0
 19 53  1  0  0  0  0
 19 52  1  0  0  0  0
 20 19  1  0  0  0  0
 20 55  1  0  0  0  0
 21 23  2  0  0  0  0
 22 21  2  0  0  0  0
 24 21  1  0  0  0  0
 24 25  2  0  0  0  0
 25 56  1  0  0  0  0
 26 25  1  0  0  0  0
 26 33  2  0  0  0  0
 27 26  1  0  0  0  0
 28 29  2  0  0  0  0
 28 27  1  0  0  0  0
 29 24  1  0  0  0  0
 30 27  2  0  0  0  0
 30 31  1  0  0  0  0
 31 32  2  0  0  0  0
 32 33  1  0  0  0  0
 32 60  1  0  0  0  0
 33 61  1  0  0  0  0
 34 31  1  0  0  0  0
 35  2  1  0  0  0  0
 36  3  1  0  0  0  0
 41  9  1  0  0  0  0
 43 10  1  0  0  0  0
 44 11  1  0  0  0  0
 45 11  1  0  0  0  0
 49 16  1  0  0  0  0
 50 17  1  0  0  0  0
 51 17  1  0  0  0  0
 54 20  1  0  0  0  0
 57 28  1  0  0  0  0
 58 29  1  0  0  0  0
 59 30  1  0  0  0  0
M  END
