omegacsd_DIAVER_03.log
 OpenBabel10161801213D
Gaussian 16 # PM6 Opt
 35 36  0  0  0  0  0  0  0  0999 V2000
    3.4859   -0.7227   -1.5491 N   0  0  0  0  0  0  0  0  0  0  0  0
    4.3095    0.1446   -0.8416 C   0  0  0  0  0  0  0  0  0  0  0  0
    4.0397    0.6468    0.4168 N   0  0  0  0  0  0  0  0  0  0  0  0
    2.8723    0.2207    1.0105 C   0  0  0  0  0  0  0  0  0  0  0  0
    2.0040   -0.7196    0.3793 C   0  0  0  0  0  0  0  0  0  0  0  0
    2.3612   -1.1323   -0.9136 C   0  0  0  0  0  0  0  0  0  0  0  0
    0.7571   -1.2427    1.0209 C   0  0  0  0  0  0  0  0  0  0  0  0
   -0.4914   -0.5065    0.5969 C   0  0  0  0  0  0  0  0  0  0  0  0
   -1.6655   -1.2552    0.3460 C   0  0  0  0  0  0  0  0  0  0  0  0
   -2.8320   -0.5980   -0.0172 C   0  0  0  0  0  0  0  0  0  0  0  0
   -2.8477    0.8312   -0.1364 C   0  0  0  0  0  0  0  0  0  0  0  0
   -1.6910    1.5554    0.1120 C   0  0  0  0  0  0  0  0  0  0  0  0
   -0.5121    0.8789    0.4805 C   0  0  0  0  0  0  0  0  0  0  0  0
   -4.0793    1.3328   -0.4998 O   0  0  0  0  0  0  0  0  0  0  0  0
   -4.1745    2.7664   -0.6800 C   0  0  0  0  0  0  0  0  0  0  0  0
   -4.0504   -1.1759   -0.2915 O   0  0  0  0  0  0  0  0  0  0  0  0
   -4.1273   -2.6207   -0.2254 C   0  0  0  0  0  0  0  0  0  0  0  0
    2.5729    0.8236    2.2284 N   0  0  0  0  0  0  0  0  0  0  0  0
    5.5232    0.4900   -1.4192 N   0  0  0  0  0  0  0  0  0  0  0  0
    1.7211   -1.8224   -1.4812 H   0  0  0  0  0  0  0  0  0  0  0  0
    0.8316   -1.2050    2.1298 H   0  0  0  0  0  0  0  0  0  0  0  0
    0.6599   -2.3278    0.7908 H   0  0  0  0  0  0  0  0  0  0  0  0
   -1.6418   -2.3362    0.4366 H   0  0  0  0  0  0  0  0  0  0  0  0
   -1.6745    2.6380    0.0254 H   0  0  0  0  0  0  0  0  0  0  0  0
    0.3900    1.4619    0.6643 H   0  0  0  0  0  0  0  0  0  0  0  0
   -5.2271    2.8803   -0.9711 H   0  0  0  0  0  0  0  0  0  0  0  0
   -3.9704    3.2843    0.2610 H   0  0  0  0  0  0  0  0  0  0  0  0
   -3.5090    3.0966   -1.4823 H   0  0  0  0  0  0  0  0  0  0  0  0
   -3.4562   -3.0735   -0.9604 H   0  0  0  0  0  0  0  0  0  0  0  0
   -5.1780   -2.7954   -0.4929 H   0  0  0  0  0  0  0  0  0  0  0  0
   -3.9189   -2.9683    0.7899 H   0  0  0  0  0  0  0  0  0  0  0  0
    3.2958    1.3605    2.6884 H   0  0  0  0  0  0  0  0  0  0  0  0
    1.8892    0.3942    2.8307 H   0  0  0  0  0  0  0  0  0  0  0  0
    5.6568    0.3004   -2.4019 H   0  0  0  0  0  0  0  0  0  0  0  0
    6.0420    1.2613   -1.0270 H   0  0  0  0  0  0  0  0  0  0  0  0
  1  6  2  0  0  0  0
  1  2  1  0  0  0  0
  2  3  2  0  0  0  0
  3  4  1  0  0  0  0
  4 18  1  0  0  0  0
  5  4  2  0  0  0  0
  5  7  1  0  0  0  0
  6  5  1  0  0  0  0
  7 21  1  0  0  0  0
  8  7  1  0  0  0  0
  9 23  1  0  0  0  0
  9  8  2  0  0  0  0
 10  9  1  0  0  0  0
 11 10  2  0  0  0  0
 11 12  1  0  0  0  0
 12 13  2  0  0  0  0
 13  8  1  0  0  0  0
 13 25  1  0  0  0  0
 14 11  1  0  0  0  0
 15 14  1  0  0  0  0
 15 27  1  0  0  0  0
 16 17  1  0  0  0  0
 16 10  1  0  0  0  0
 17 31  1  0  0  0  0
 18 32  1  0  0  0  0
 18 33  1  0  0  0  0
 19 35  1  0  0  0  0
 19  2  1  0  0  0  0
 20  6  1  0  0  0  0
 22  7  1  0  0  0  0
 24 12  1  0  0  0  0
 26 15  1  0  0  0  0
 28 15  1  0  0  0  0
 29 17  1  0  0  0  0
 30 17  1  0  0  0  0
 34 19  1  0  0  0  0
M  END
