omegapdb_1m5f_11.log
 OpenBabel10161801213D
Gaussian 16 # PM6 Opt
 25 25  0  0  1  0  0  0  0  0999 V2000
   -2.1839   -2.5086    0.4032 O   0  0  0  0  0  0  0  0  0  0  0  0
   -1.5089   -1.7145   -0.4751 C   0  0  0  0  0  0  0  0  0  0  0  0
   -0.9226   -2.1841   -1.4257 O   0  0  0  0  0  0  0  0  0  0  0  0
   -1.6113   -0.2834   -0.1128 C   0  0  0  0  0  0  0  0  0  0  0  0
   -2.6402    0.2960    0.5187 N   0  0  0  0  0  0  0  0  0  0  0  0
   -2.3611    1.6321    0.6581 O   0  0  0  0  0  0  0  0  0  0  0  0
   -1.0937    1.8882    0.0849 C   0  0  0  0  0  0  0  0  0  0  0  0
   -0.5874    0.7112   -0.4190 C   0  0  0  0  0  0  0  0  0  0  0  0
    0.6820    0.4546   -1.1359 C   0  0  0  0  0  0  0  0  0  0  0  0
    1.9133    0.5540   -0.2119 C   0  0  2  0  0  0  0  0  0  0  0  0
    3.2032    0.6461   -0.9433 N   0  0  0  0  0  0  0  0  0  0  0  0
    2.0098   -0.6589    0.7342 C   0  0  0  0  0  0  0  0  0  0  0  0
    1.0946   -1.3365    1.1244 O   0  0  0  0  0  0  0  0  0  0  0  0
    3.2568   -0.9486    1.2152 O   0  0  0  0  0  0  0  0  0  0  0  0
   -0.6576    3.2836    0.1655 C   0  0  0  0  0  0  0  0  0  0  0  0
   -2.0742   -3.4813    0.1915 H   0  0  0  0  0  0  0  0  0  0  0  0
    0.7837    1.1708   -1.9797 H   0  0  0  0  0  0  0  0  0  0  0  0
    0.6409   -0.5581   -1.6150 H   0  0  0  0  0  0  0  0  0  0  0  0
    1.8109    1.4606    0.4482 H   0  0  0  0  0  0  0  0  0  0  0  0
    3.3317    1.5706   -1.3455 H   0  0  0  0  0  0  0  0  0  0  0  0
    3.2448   -0.0269   -1.7076 H   0  0  0  0  0  0  0  0  0  0  0  0
    3.9938   -0.3942    0.8230 H   0  0  0  0  0  0  0  0  0  0  0  0
   -0.2179    3.6305   -0.7835 H   0  0  0  0  0  0  0  0  0  0  0  0
    0.0954    3.4289    0.9591 H   0  0  0  0  0  0  0  0  0  0  0  0
   -1.4979    3.9619    0.4018 H   0  0  0  0  0  0  0  0  0  0  0  0
  2  4  1  0  0  0  0
  2  1  1  0  0  0  0
  3  2  2  0  0  0  0
  4  5  2  0  0  0  0
  5  6  1  0  0  0  0
  7 15  1  0  0  0  0
  7  6  1  0  0  0  0
  8  4  1  0  0  0  0
  8  7  2  0  0  0  0
  9  8  1  0  0  0  0
  9 10  1  0  0  0  0
 10 19  1  1  0  0  0
 10 12  1  0  0  0  0
 11 10  1  0  0  0  0
 12 13  2  0  0  0  0
 12 14  1  0  0  0  0
 15 25  1  0  0  0  0
 15 24  1  0  0  0  0
 16  1  1  0  0  0  0
 17  9  1  0  0  0  0
 18  9  1  0  0  0  0
 20 11  1  0  0  0  0
 21 11  1  0  0  0  0
 22 14  1  0  0  0  0
 23 15  1  0  0  0  0
M  END
