omegapdb_1qxw_30.log
 OpenBabel10161801213D
Gaussian 16 # PM6 Opt
 36 36  0  0  1  0  0  0  0  0999 V2000
   -4.6649   -0.8461    0.0968 C   0  0  0  0  0  0  0  0  0  0  0  0
   -4.8245    0.3476   -0.8244 C   0  0  0  0  0  0  0  0  0  0  0  0
   -3.7208    0.3516    0.2220 C   0  0  0  0  0  0  0  0  0  0  0  0
   -2.3274    0.3017   -0.2259 N   0  0  0  0  0  0  0  0  0  0  0  0
   -1.4498   -0.3641    0.7799 C   0  0  0  0  0  0  0  0  0  0  0  0
   -0.0040   -0.4352    0.2374 C   0  0  0  0  0  0  0  0  0  0  0  0
    0.5735    0.8695   -0.4041 C   0  0  1  0  0  0  0  0  0  0  0  0
    0.4150    2.0566    0.4631 N   0  0  0  0  0  0  0  0  0  0  0  0
    2.0398    0.6882   -0.8456 C   0  0  0  0  0  0  0  0  0  0  0  0
    3.0807    0.7714    0.2768 C   0  0  0  0  0  0  0  0  0  0  0  0
    4.4630    0.2815   -0.1760 C   0  0  0  0  0  0  0  0  0  0  0  0
    4.5434   -1.2391   -0.2894 C   0  0  0  0  0  0  0  0  0  0  0  0
    0.7239   -0.9316    1.3537 O   0  0  0  0  0  0  0  0  0  0  0  0
    0.1028   -1.4252   -0.7865 O   0  0  0  0  0  0  0  0  0  0  0  0
   -4.3027   -1.7867   -0.3080 H   0  0  0  0  0  0  0  0  0  0  0  0
   -5.4036   -1.0302    0.8719 H   0  0  0  0  0  0  0  0  0  0  0  0
   -5.6739    1.0162   -0.7004 H   0  0  0  0  0  0  0  0  0  0  0  0
   -4.5788    0.2487   -1.8798 H   0  0  0  0  0  0  0  0  0  0  0  0
   -3.8285    1.0090    1.0986 H   0  0  0  0  0  0  0  0  0  0  0  0
   -2.2433   -0.1877   -1.1286 H   0  0  0  0  0  0  0  0  0  0  0  0
   -1.7847   -1.3864    1.0628 H   0  0  0  0  0  0  0  0  0  0  0  0
   -1.4600    0.2258    1.7241 H   0  0  0  0  0  0  0  0  0  0  0  0
   -0.0343    1.0480   -1.3392 H   0  0  0  0  0  0  0  0  0  0  0  0
   -0.5694    2.3078    0.5467 H   0  0  0  0  0  0  0  0  0  0  0  0
    0.7736    1.8863    1.3973 H   0  0  0  0  0  0  0  0  0  0  0  0
    2.1231   -0.2827   -1.3804 H   0  0  0  0  0  0  0  0  0  0  0  0
    2.2671    1.4705   -1.5998 H   0  0  0  0  0  0  0  0  0  0  0  0
    3.1559    1.8208    0.6288 H   0  0  0  0  0  0  0  0  0  0  0  0
    2.7503    0.1845    1.1637 H   0  0  0  0  0  0  0  0  0  0  0  0
    4.7253    0.7445   -1.1482 H   0  0  0  0  0  0  0  0  0  0  0  0
    5.2293    0.6402    0.5399 H   0  0  0  0  0  0  0  0  0  0  0  0
    5.5219   -1.5561   -0.6681 H   0  0  0  0  0  0  0  0  0  0  0  0
    4.3954   -1.7276    0.6797 H   0  0  0  0  0  0  0  0  0  0  0  0
    3.7849   -1.6328   -0.9773 H   0  0  0  0  0  0  0  0  0  0  0  0
    1.7094   -0.8914    1.1987 H   0  0  0  0  0  0  0  0  0  0  0  0
   -0.0023   -2.3268   -0.4210 H   0  0  0  0  0  0  0  0  0  0  0  0
  1  3  1  0  0  0  0
  1 16  1  0  0  0  0
  2 17  1  0  0  0  0
  2  1  1  0  0  0  0
  2  3  1  0  0  0  0
  3 19  1  0  0  0  0
  4  3  1  0  0  0  0
  4  5  1  0  0  0  0
  5 21  1  0  0  0  0
  5 22  1  0  0  0  0
  6  5  1  0  0  0  0
  6 13  1  0  0  0  0
  7 23  1  6  0  0  0
  7  6  1  0  0  0  0
  7  8  1  0  0  0  0
  8 24  1  0  0  0  0
  8 25  1  0  0  0  0
  9  7  1  0  0  0  0
  9 10  1  0  0  0  0
 10 28  1  0  0  0  0
 10 29  1  0  0  0  0
 11 10  1  0  0  0  0
 11 31  1  0  0  0  0
 12 11  1  0  0  0  0
 12 33  1  0  0  0  0
 14 36  1  0  0  0  0
 14  6  1  0  0  0  0
 15  1  1  0  0  0  0
 18  2  1  0  0  0  0
 20  4  1  0  0  0  0
 26  9  1  0  0  0  0
 27  9  1  0  0  0  0
 30 11  1  0  0  0  0
 32 12  1  0  0  0  0
 34 12  1  0  0  0  0
 35 13  1  0  0  0  0
M  END
