omegapdb_1xom_18.log
 OpenBabel10161801213D
Gaussian 16 # PM6 Opt
 50 52  0  0  1  0  0  0  0  0999 V2000
   -5.8362   -2.6314    0.1239 O   0  0  0  0  0  0  0  0  0  0  0  0
   -5.5631   -1.3354   -0.2851 C   0  0  0  0  0  0  0  0  0  0  0  0
   -6.5168   -0.6567   -0.5540 O   0  0  0  0  0  0  0  0  0  0  0  0
   -4.0879   -0.9697   -0.3445 C   0  0  1  0  0  0  0  0  0  0  0  0
   -3.9041    0.3349   -1.1398 C   0  0  0  0  0  0  0  0  0  0  0  0
   -2.4318    0.7468   -1.1886 C   0  0  0  0  0  0  0  0  0  0  0  0
   -1.8015    0.8672    0.2256 C   0  0  2  0  0  0  0  0  0  0  0  0
   -2.0507   -0.4281    1.0465 C   0  0  0  0  0  0  0  0  0  0  0  0
   -3.5329   -0.8121    1.0829 C   0  0  0  0  0  0  0  0  0  0  0  0
   -2.4561    1.9778    0.9471 C   0  0  0  0  0  0  0  0  0  0  0  0
   -2.9843    2.8323    1.5163 N   0  0  0  0  0  0  0  0  0  0  0  0
   -0.3079    1.1408    0.0656 C   0  0  0  0  0  0  0  0  0  0  0  0
    0.2139    2.4336    0.1597 C   0  0  0  0  0  0  0  0  0  0  0  0
    1.5813    2.6814   -0.0248 C   0  0  0  0  0  0  0  0  0  0  0  0
    2.4441    1.6222   -0.3110 C   0  0  0  0  0  0  0  0  0  0  0  0
    3.8016    1.7112   -0.4916 O   0  0  0  0  0  0  0  0  0  0  0  0
    4.3882    3.0375   -0.5009 C   0  0  0  0  0  0  0  0  0  0  0  0
    1.9181    0.3023   -0.4286 C   0  0  0  0  0  0  0  0  0  0  0  0
    0.5593    0.0733   -0.2382 C   0  0  0  0  0  0  0  0  0  0  0  0
    2.7378   -0.7278   -0.8485 O   0  0  0  0  0  0  0  0  0  0  0  0
    3.2330   -1.6178    0.2114 C   0  0  0  0  0  0  0  0  0  0  0  0
    3.7769   -2.8214   -0.5748 C   0  0  0  0  0  0  0  0  0  0  0  0
    5.2560   -2.9818   -0.1828 C   0  0  0  0  0  0  0  0  0  0  0  0
    5.5222   -2.0187    0.9910 C   0  0  0  0  0  0  0  0  0  0  0  0
    4.4073   -0.9633    0.9525 C   0  0  0  0  0  0  0  0  0  0  0  0
   -5.0567   -3.1796    0.3500 H   0  0  0  0  0  0  0  0  0  0  0  0
   -3.5343   -1.7881   -0.8702 H   0  0  0  0  0  0  0  0  0  0  0  0
   -4.2985    0.2129   -2.1685 H   0  0  0  0  0  0  0  0  0  0  0  0
   -4.5207    1.1411   -0.6865 H   0  0  0  0  0  0  0  0  0  0  0  0
   -1.8480    0.0144   -1.7811 H   0  0  0  0  0  0  0  0  0  0  0  0
   -2.3281    1.7111   -1.7257 H   0  0  0  0  0  0  0  0  0  0  0  0
   -1.4588   -1.2581    0.6105 H   0  0  0  0  0  0  0  0  0  0  0  0
   -1.6675   -0.2934    2.0777 H   0  0  0  0  0  0  0  0  0  0  0  0
   -3.6635   -1.7463    1.6612 H   0  0  0  0  0  0  0  0  0  0  0  0
   -4.1139   -0.0380    1.6295 H   0  0  0  0  0  0  0  0  0  0  0  0
   -0.4344    3.2847    0.3788 H   0  0  0  0  0  0  0  0  0  0  0  0
    1.9511    3.6999    0.0606 H   0  0  0  0  0  0  0  0  0  0  0  0
    5.4427    2.8081   -0.7052 H   0  0  0  0  0  0  0  0  0  0  0  0
    4.2705    3.5128    0.4766 H   0  0  0  0  0  0  0  0  0  0  0  0
    3.9584    3.6404   -1.3059 H   0  0  0  0  0  0  0  0  0  0  0  0
    0.1784   -0.9431   -0.3469 H   0  0  0  0  0  0  0  0  0  0  0  0
    2.3847   -1.8694    0.8729 H   0  0  0  0  0  0  0  0  0  0  0  0
    3.1966   -3.7320   -0.3599 H   0  0  0  0  0  0  0  0  0  0  0  0
    3.6704   -2.6320   -1.6627 H   0  0  0  0  0  0  0  0  0  0  0  0
    5.9078   -2.7328   -1.0393 H   0  0  0  0  0  0  0  0  0  0  0  0
    5.4881   -4.0228    0.0936 H   0  0  0  0  0  0  0  0  0  0  0  0
    6.5183   -1.5538    0.9107 H   0  0  0  0  0  0  0  0  0  0  0  0
    5.5087   -2.5638    1.9510 H   0  0  0  0  0  0  0  0  0  0  0  0
    4.1279   -0.6163    1.9577 H   0  0  0  0  0  0  0  0  0  0  0  0
    4.7335   -0.0608    0.3898 H   0  0  0  0  0  0  0  0  0  0  0  0
  1 26  1  0  0  0  0
  2  1  1  0  0  0  0
  3  2  2  0  0  0  0
  4 27  1  6  0  0  0
  4  2  1  0  0  0  0
  4  9  1  0  0  0  0
  5 29  1  0  0  0  0
  5  4  1  0  0  0  0
  6  5  1  0  0  0  0
  6  7  1  0  0  0  0
  7 12  1  6  0  0  0
  7 10  1  0  0  0  0
  7  8  1  0  0  0  0
  8  9  1  0  0  0  0
  8 33  1  0  0  0  0
  9 35  1  0  0  0  0
  9 34  1  0  0  0  0
 10 11  3  0  0  0  0
 12 13  1  0  0  0  0
 13 36  1  0  0  0  0
 14 37  1  0  0  0  0
 14 13  2  0  0  0  0
 15 14  1  0  0  0  0
 16 15  1  0  0  0  0
 17 16  1  0  0  0  0
 17 39  1  0  0  0  0
 18 15  2  0  0  0  0
 18 19  1  0  0  0  0
 19 12  2  0  0  0  0
 20 18  1  0  0  0  0
 20 21  1  0  0  0  0
 21 42  1  0  0  0  0
 21 25  1  0  0  0  0
 22 43  1  0  0  0  0
 22 23  1  0  0  0  0
 22 21  1  0  0  0  0
 23 46  1  0  0  0  0
 23 24  1  0  0  0  0
 24 48  1  0  0  0  0
 25 24  1  0  0  0  0
 25 49  1  0  0  0  0
 28  5  1  0  0  0  0
 30  6  1  0  0  0  0
 31  6  1  0  0  0  0
 32  8  1  0  0  0  0
 38 17  1  0  0  0  0
 40 17  1  0  0  0  0
 41 19  1  0  0  0  0
 44 22  1  0  0  0  0
 45 23  1  0  0  0  0
 47 24  1  0  0  0  0
 50 25  1  0  0  0  0
M  END
