omegapdb_1z1r_04.log
 OpenBabel10161801213D
Gaussian 16 # PM6 Opt
 66 68  0  0  1  0  0  0  0  0999 V2000
   -0.2901   -1.8867    0.5634 C   0  0  2  0  0  0  0  0  0  0  0  0
   -1.2419   -3.0063    0.0789 C   0  0  0  0  0  0  0  0  0  0  0  0
   -2.6638   -2.5187    0.0207 C   0  0  0  0  0  0  0  0  0  0  0  0
   -3.2569   -1.9334    1.1519 C   0  0  0  0  0  0  0  0  0  0  0  0
   -4.5037   -1.3173    1.0631 C   0  0  0  0  0  0  0  0  0  0  0  0
   -5.1706   -1.3197   -0.1704 C   0  0  0  0  0  0  0  0  0  0  0  0
   -4.6356   -1.9742   -1.2940 C   0  0  0  0  0  0  0  0  0  0  0  0
   -3.3798   -2.5684   -1.1873 C   0  0  0  0  0  0  0  0  0  0  0  0
   -6.4033   -0.7329   -0.3791 O   0  0  0  0  0  0  0  0  0  0  0  0
   -6.6996    0.4926    0.3512 C   0  0  0  0  0  0  0  0  0  0  0  0
   -6.2665    1.6996   -0.4810 C   0  0  0  0  0  0  0  0  0  0  0  0
   -4.7495    1.8927   -0.5523 C   0  0  0  0  0  0  0  0  0  0  0  0
   -4.1654    2.3032    0.7798 C   0  0  0  0  0  0  0  0  0  0  0  0
   -4.8160    2.7095    1.7278 O   0  0  0  0  0  0  0  0  0  0  0  0
   -2.7626    2.2876    0.9270 N   0  0  0  0  0  0  0  0  0  0  0  0
   -1.8261    1.6146    0.0187 C   0  0  2  0  0  0  0  0  0  0  0  0
   -1.1604    0.4374    0.7788 C   0  0  0  0  0  0  0  0  0  0  0  0
   -1.0209    0.4205    1.9909 O   0  0  0  0  0  0  0  0  0  0  0  0
   -0.6715   -0.5827   -0.0335 N   0  0  0  0  0  0  0  0  0  0  0  0
   -0.7182    2.5710   -0.4634 C   0  0  0  0  0  0  0  0  0  0  0  0
    0.0091    1.9427   -1.6410 C   0  0  0  0  0  0  0  0  0  0  0  0
   -0.5614    1.1819   -2.4175 O   0  0  0  0  0  0  0  0  0  0  0  0
    1.3274    2.3219   -1.8509 N   0  0  0  0  0  0  0  0  0  0  0  0
    1.1870   -2.1731    0.1711 C   0  0  2  0  0  0  0  0  0  0  0  0
    1.5336   -3.5203    0.5031 O   0  0  0  0  0  0  0  0  0  0  0  0
    2.1471   -1.1939    0.8840 C   0  0  0  0  0  0  0  0  0  0  0  0
    3.5491   -1.3450    0.4344 N   0  0  0  0  0  0  0  0  0  0  0  0
    4.1646   -0.2008   -0.6922 S   0  0  0  0  0  0  0  0  0  0  0  0
    3.2271    0.9231   -0.7145 O   0  0  0  0  0  0  0  0  0  0  0  0
    4.4336   -0.8959   -1.9322 O   0  0  0  0  0  0  0  0  0  0  0  0
    5.6511    0.2941    0.0249 C   0  0  0  0  0  0  0  0  0  0  0  0
    5.6511    1.0401    1.2082 C   0  0  0  0  0  0  0  0  0  0  0  0
    6.8622    1.4427    1.7787 C   0  0  0  0  0  0  0  0  0  0  0  0
    8.0712    1.0987    1.1637 C   0  0  0  0  0  0  0  0  0  0  0  0
    8.0717    0.3536   -0.0210 C   0  0  0  0  0  0  0  0  0  0  0  0
    6.8608   -0.0491   -0.5903 C   0  0  0  0  0  0  0  0  0  0  0  0
   -0.3695   -1.8028    1.6846 H   0  0  0  0  0  0  0  0  0  0  0  0
   -0.9117   -3.3907   -0.9085 H   0  0  0  0  0  0  0  0  0  0  0  0
   -1.1557   -3.8801    0.7574 H   0  0  0  0  0  0  0  0  0  0  0  0
   -2.7281   -1.9293    2.1067 H   0  0  0  0  0  0  0  0  0  0  0  0
   -4.9495   -0.8414    1.9350 H   0  0  0  0  0  0  0  0  0  0  0  0
   -5.1996   -1.9961   -2.2238 H   0  0  0  0  0  0  0  0  0  0  0  0
   -2.9459   -3.0584   -2.0592 H   0  0  0  0  0  0  0  0  0  0  0  0
   -6.2447    0.4837    1.3571 H   0  0  0  0  0  0  0  0  0  0  0  0
   -7.8011    0.4287    0.4391 H   0  0  0  0  0  0  0  0  0  0  0  0
   -6.7368    2.6115   -0.0505 H   0  0  0  0  0  0  0  0  0  0  0  0
   -6.6637    1.5926   -1.5121 H   0  0  0  0  0  0  0  0  0  0  0  0
   -4.5119    2.6758   -1.3060 H   0  0  0  0  0  0  0  0  0  0  0  0
   -4.2714    0.9622   -0.9338 H   0  0  0  0  0  0  0  0  0  0  0  0
   -2.3928    2.4988    1.8638 H   0  0  0  0  0  0  0  0  0  0  0  0
   -2.3761    1.2197   -0.8878 H   0  0  0  0  0  0  0  0  0  0  0  0
   -0.8392   -0.5739   -1.0483 H   0  0  0  0  0  0  0  0  0  0  0  0
   -1.1688    3.5352   -0.7915 H   0  0  0  0  0  0  0  0  0  0  0  0
   -0.0380    2.8438    0.3668 H   0  0  0  0  0  0  0  0  0  0  0  0
    1.9120    2.6250   -1.0773 H   0  0  0  0  0  0  0  0  0  0  0  0
    1.8623    1.7898   -2.5351 H   0  0  0  0  0  0  0  0  0  0  0  0
    1.3259   -2.1659   -0.9366 H   0  0  0  0  0  0  0  0  0  0  0  0
    1.4733   -3.6782    1.4677 H   0  0  0  0  0  0  0  0  0  0  0  0
    1.7950   -0.1409    0.7454 H   0  0  0  0  0  0  0  0  0  0  0  0
    2.1262   -1.3745    1.9854 H   0  0  0  0  0  0  0  0  0  0  0  0
    3.7759   -2.3411    0.2714 H   0  0  0  0  0  0  0  0  0  0  0  0
    4.7084    1.3136    1.6907 H   0  0  0  0  0  0  0  0  0  0  0  0
    6.8640    2.0236    2.7004 H   0  0  0  0  0  0  0  0  0  0  0  0
    9.0167    1.4131    1.6090 H   0  0  0  0  0  0  0  0  0  0  0  0
    9.0138    0.0882   -0.4999 H   0  0  0  0  0  0  0  0  0  0  0  0
    6.8599   -0.6302   -1.5211 H   0  0  0  0  0  0  0  0  0  0  0  0
  1 37  1  1  0  0  0
  2  1  1  0  0  0  0
  2 39  1  0  0  0  0
  3  2  1  0  0  0  0
  3  4  2  0  0  0  0
  4 40  1  0  0  0  0
  5  4  1  0  0  0  0
  5 41  1  0  0  0  0
  6  5  2  0  0  0  0
  7  8  2  0  0  0  0
  7  6  1  0  0  0  0
  8  3  1  0  0  0  0
  9  6  1  0  0  0  0
  9 10  1  0  0  0  0
 10 45  1  0  0  0  0
 10 44  1  0  0  0  0
 11 46  1  0  0  0  0
 11 10  1  0  0  0  0
 12 11  1  0  0  0  0
 12 13  1  0  0  0  0
 13 15  1  0  0  0  0
 13 14  2  0  0  0  0
 15 50  1  0  0  0  0
 16 51  1  6  0  0  0
 16 17  1  0  0  0  0
 16 15  1  0  0  0  0
 17 18  2  0  0  0  0
 19  1  1  0  0  0  0
 19 17  1  0  0  0  0
 20 16  1  0  0  0  0
 20 54  1  0  0  0  0
 21 20  1  0  0  0  0
 22 21  2  0  0  0  0
 23 21  1  0  0  0  0
 23 55  1  0  0  0  0
 24 57  1  6  0  0  0
 24 25  1  0  0  0  0
 24  1  1  0  0  0  0
 24 26  1  0  0  0  0
 25 58  1  0  0  0  0
 26 60  1  0  0  0  0
 27 26  1  0  0  0  0
 28 31  1  0  0  0  0
 28 27  1  0  0  0  0
 29 28  2  0  0  0  0
 30 28  2  0  0  0  0
 31 32  2  0  0  0  0
 32 62  1  0  0  0  0
 32 33  1  0  0  0  0
 33 63  1  0  0  0  0
 34 64  1  0  0  0  0
 34 33  2  0  0  0  0
 35 34  1  0  0  0  0
 36 35  2  0  0  0  0
 36 31  1  0  0  0  0
 38  2  1  0  0  0  0
 42  7  1  0  0  0  0
 43  8  1  0  0  0  0
 47 11  1  0  0  0  0
 48 12  1  0  0  0  0
 49 12  1  0  0  0  0
 52 19  1  0  0  0  0
 53 20  1  0  0  0  0
 56 23  1  0  0  0  0
 59 26  1  0  0  0  0
 61 27  1  0  0  0  0
 65 35  1  0  0  0  0
 66 36  1  0  0  0  0
M  END
