omegacsd_CDBMPI10_04.log
 OpenBabel10161801213D
Gaussian 16 # PM6 Opt
 46 48  0  0  1  0  0  0  0  0999 V2000
   -3.0539    2.1109   -0.8632 O   0  0  0  0  0  0  0  0  0  0  0  0
   -2.5277    1.1617   -0.3032 C   0  0  0  0  0  0  0  0  0  0  0  0
   -1.3321    1.3446    0.4023 N   0  0  0  0  0  0  0  0  0  0  0  0
   -0.5851    0.2492    1.0850 C   0  0  1  0  0  0  0  0  0  0  0  0
    0.9123    0.6434    1.2470 C   0  0  0  0  0  0  0  0  0  0  0  0
    1.4247    1.2884    0.0209 N   0  0  0  0  0  0  0  0  0  0  0  0
    0.7071    2.5287   -0.4231 C   0  0  1  0  0  0  0  0  0  0  0  0
   -0.6463    2.6584    0.3223 C   0  0  0  0  0  0  0  0  0  0  0  0
    1.5773    3.7607   -0.1716 C   0  0  0  0  0  0  0  0  0  0  0  0
    2.3764    0.7130   -0.8278 C   0  0  0  0  0  0  0  0  0  0  0  0
    2.6748    1.2682   -1.8732 O   0  0  0  0  0  0  0  0  0  0  0  0
    3.0148   -0.5665   -0.3710 C   0  0  0  0  0  0  0  0  0  0  0  0
    2.5036   -1.7909   -0.8181 C   0  0  0  0  0  0  0  0  0  0  0  0
    3.1273   -2.9805   -0.4304 C   0  0  0  0  0  0  0  0  0  0  0  0
    4.2562   -2.9440    0.3951 C   0  0  0  0  0  0  0  0  0  0  0  0
    4.7670   -1.7173    0.8328 C   0  0  0  0  0  0  0  0  0  0  0  0
    4.1483   -0.5236    0.4497 C   0  0  0  0  0  0  0  0  0  0  0  0
   -1.1904   -0.0405    2.4617 C   0  0  0  0  0  0  0  0  0  0  0  0
   -3.1234   -0.2151   -0.3043 C   0  0  0  0  0  0  0  0  0  0  0  0
   -2.6815   -1.1624   -1.2364 C   0  0  0  0  0  0  0  0  0  0  0  0
   -3.2769   -2.4266   -1.2687 C   0  0  0  0  0  0  0  0  0  0  0  0
   -4.3093   -2.7390   -0.3775 C   0  0  0  0  0  0  0  0  0  0  0  0
   -4.7542   -1.7852    0.5438 C   0  0  0  0  0  0  0  0  0  0  0  0
   -4.1652   -0.5177    0.5805 C   0  0  0  0  0  0  0  0  0  0  0  0
   -0.6479   -0.6730    0.4472 H   0  0  0  0  0  0  0  0  0  0  0  0
    1.0399    1.3491    2.1003 H   0  0  0  0  0  0  0  0  0  0  0  0
    1.5042   -0.2626    1.5026 H   0  0  0  0  0  0  0  0  0  0  0  0
    0.5191    2.4284   -1.5295 H   0  0  0  0  0  0  0  0  0  0  0  0
   -1.2999    3.3877   -0.2188 H   0  0  0  0  0  0  0  0  0  0  0  0
   -0.5070    3.0590    1.3493 H   0  0  0  0  0  0  0  0  0  0  0  0
    1.0671    4.6799   -0.4798 H   0  0  0  0  0  0  0  0  0  0  0  0
    2.5074    3.6952   -0.7586 H   0  0  0  0  0  0  0  0  0  0  0  0
    1.8645    3.8661    0.8791 H   0  0  0  0  0  0  0  0  0  0  0  0
    1.6336   -1.8145   -1.4736 H   0  0  0  0  0  0  0  0  0  0  0  0
    2.7371   -3.9360   -0.7779 H   0  0  0  0  0  0  0  0  0  0  0  0
    4.7421   -3.8724    0.6929 H   0  0  0  0  0  0  0  0  0  0  0  0
    5.6516   -1.6905    1.4675 H   0  0  0  0  0  0  0  0  0  0  0  0
    4.5501    0.4348    0.7783 H   0  0  0  0  0  0  0  0  0  0  0  0
   -0.6056   -0.7869    3.0101 H   0  0  0  0  0  0  0  0  0  0  0  0
   -1.2514    0.8614    3.0827 H   0  0  0  0  0  0  0  0  0  0  0  0
   -2.2121   -0.4327    2.3722 H   0  0  0  0  0  0  0  0  0  0  0  0
   -1.8886   -0.9103   -1.9407 H   0  0  0  0  0  0  0  0  0  0  0  0
   -2.9409   -3.1662   -1.9942 H   0  0  0  0  0  0  0  0  0  0  0  0
   -4.7723   -3.7246   -0.4062 H   0  0  0  0  0  0  0  0  0  0  0  0
   -5.5663   -2.0259    1.2284 H   0  0  0  0  0  0  0  0  0  0  0  0
   -4.5227    0.2356    1.2830 H   0  0  0  0  0  0  0  0  0  0  0  0
  1  2  2  0  0  0  0
  2  3  1  0  0  0  0
  3  4  1  0  0  0  0
  4 25  1  6  0  0  0
  4  5  1  0  0  0  0
  4 18  1  0  0  0  0
  5 27  1  0  0  0  0
  5 26  1  0  0  0  0
  6  5  1  0  0  0  0
  7 28  1  6  0  0  0
  7  9  1  0  0  0  0
  7  6  1  0  0  0  0
  7  8  1  0  0  0  0
  8  3  1  0  0  0  0
  8 30  1  0  0  0  0
  9 33  1  0  0  0  0
 10 12  1  0  0  0  0
 10  6  1  0  0  0  0
 11 10  2  0  0  0  0
 12 17  2  0  0  0  0
 13 14  2  0  0  0  0
 13 12  1  0  0  0  0
 14 15  1  0  0  0  0
 15 36  1  0  0  0  0
 15 16  2  0  0  0  0
 16 37  1  0  0  0  0
 17 38  1  0  0  0  0
 17 16  1  0  0  0  0
 18 39  1  0  0  0  0
 18 40  1  0  0  0  0
 19  2  1  0  0  0  0
 19 24  2  0  0  0  0
 20 19  1  0  0  0  0
 21 20  2  0  0  0  0
 21 22  1  0  0  0  0
 22 23  2  0  0  0  0
 23 24  1  0  0  0  0
 23 45  1  0  0  0  0
 24 46  1  0  0  0  0
 29  8  1  0  0  0  0
 31  9  1  0  0  0  0
 32  9  1  0  0  0  0
 34 13  1  0  0  0  0
 35 14  1  0  0  0  0
 41 18  1  0  0  0  0
 42 20  1  0  0  0  0
 43 21  1  0  0  0  0
 44 22  1  0  0  0  0
M  END
