omegacsd_CEJTIU_01.log
 OpenBabel10161801213D
Gaussian 16 # PM6 Opt
 41 42  0  0  0  0  0  0  0  0999 V2000
   -6.9660    0.7942   -0.3381 C   0  0  0  0  0  0  0  0  0  0  0  0
   -6.0637   -0.3748   -0.5454 N   0  0  0  0  0  0  0  0  0  0  0  0
   -6.6588   -1.6161    0.0260 C   0  0  0  0  0  0  0  0  0  0  0  0
   -4.6822   -0.1482   -0.2413 C   0  0  0  0  0  0  0  0  0  0  0  0
   -4.1150    1.1346   -0.4288 C   0  0  0  0  0  0  0  0  0  0  0  0
   -2.7491    1.3401   -0.2727 C   0  0  0  0  0  0  0  0  0  0  0  0
   -1.9112    0.2636    0.0805 C   0  0  0  0  0  0  0  0  0  0  0  0
   -2.4577   -1.0154    0.2690 C   0  0  0  0  0  0  0  0  0  0  0  0
   -3.8266   -1.2149    0.1123 C   0  0  0  0  0  0  0  0  0  0  0  0
   -0.5102    0.5495    0.2284 N   0  0  0  0  0  0  0  0  0  0  0  0
    0.4399   -0.3889    0.6078 C   0  0  0  0  0  0  0  0  0  0  0  0
    0.2526   -1.5652    0.8679 O   0  0  0  0  0  0  0  0  0  0  0  0
    1.8140    0.0765    0.7163 N   0  0  0  0  0  0  0  0  0  0  0  0
    2.3055    1.3729    0.4739 C   0  0  0  0  0  0  0  0  0  0  0  0
    1.5585    2.2765    0.1344 O   0  0  0  0  0  0  0  0  0  0  0  0
    3.7886    1.5784    0.7013 C   0  0  0  0  0  0  0  0  0  0  0  0
    4.6468    0.4944    0.1146 C   0  0  0  0  0  0  0  0  0  0  0  0
    5.3249   -0.4021    0.9527 C   0  0  0  0  0  0  0  0  0  0  0  0
    6.1233   -1.4062    0.3967 C   0  0  0  0  0  0  0  0  0  0  0  0
    6.2455   -1.5209   -0.9913 C   0  0  0  0  0  0  0  0  0  0  0  0
    5.5679   -0.6263   -1.8268 C   0  0  0  0  0  0  0  0  0  0  0  0
    4.7700    0.3807   -1.2787 C   0  0  0  0  0  0  0  0  0  0  0  0
   -6.6230    1.6387   -0.9614 H   0  0  0  0  0  0  0  0  0  0  0  0
   -7.9811    0.5372   -0.6822 H   0  0  0  0  0  0  0  0  0  0  0  0
   -7.0260    1.1326    0.7076 H   0  0  0  0  0  0  0  0  0  0  0  0
   -7.6960   -1.7219   -0.3315 H   0  0  0  0  0  0  0  0  0  0  0  0
   -6.6638   -1.6467    1.1264 H   0  0  0  0  0  0  0  0  0  0  0  0
   -6.1030   -2.4937   -0.3490 H   0  0  0  0  0  0  0  0  0  0  0  0
   -4.7449    1.9764   -0.7140 H   0  0  0  0  0  0  0  0  0  0  0  0
   -2.3360    2.3366   -0.4263 H   0  0  0  0  0  0  0  0  0  0  0  0
   -1.8144   -1.8604    0.5411 H   0  0  0  0  0  0  0  0  0  0  0  0
   -4.2236   -2.2186    0.2575 H   0  0  0  0  0  0  0  0  0  0  0  0
   -0.2119    1.5270    0.0317 H   0  0  0  0  0  0  0  0  0  0  0  0
    2.4751   -0.6773    0.9663 H   0  0  0  0  0  0  0  0  0  0  0  0
    4.0737    2.5671    0.2648 H   0  0  0  0  0  0  0  0  0  0  0  0
    3.9708    1.6996    1.7931 H   0  0  0  0  0  0  0  0  0  0  0  0
    5.2388   -0.3189    2.0344 H   0  0  0  0  0  0  0  0  0  0  0  0
    6.6505   -2.1017    1.0490 H   0  0  0  0  0  0  0  0  0  0  0  0
    6.8660   -2.3053   -1.4216 H   0  0  0  0  0  0  0  0  0  0  0  0
    5.6612   -0.7150   -2.9089 H   0  0  0  0  0  0  0  0  0  0  0  0
    4.2435    1.0745   -1.9331 H   0  0  0  0  0  0  0  0  0  0  0  0
  1 25  1  0  0  0  0
  2  1  1  0  0  0  0
  2  4  1  0  0  0  0
  2  3  1  0  0  0  0
  3 27  1  0  0  0  0
  4  9  2  0  0  0  0
  5  6  2  0  0  0  0
  5  4  1  0  0  0  0
  6  7  1  0  0  0  0
  7 10  1  0  0  0  0
  7  8  2  0  0  0  0
  8 31  1  0  0  0  0
  9 32  1  0  0  0  0
  9  8  1  0  0  0  0
 10 11  1  0  0  0  0
 11 13  1  0  0  0  0
 11 12  2  0  0  0  0
 13 34  1  0  0  0  0
 14 16  1  0  0  0  0
 14 13  1  0  0  0  0
 15 14  2  0  0  0  0
 16 36  1  0  0  0  0
 17 16  1  0  0  0  0
 17 18  2  0  0  0  0
 18 37  1  0  0  0  0
 19 18  1  0  0  0  0
 19 38  1  0  0  0  0
 20 19  2  0  0  0  0
 21 22  2  0  0  0  0
 21 20  1  0  0  0  0
 22 17  1  0  0  0  0
 23  1  1  0  0  0  0
 24  1  1  0  0  0  0
 26  3  1  0  0  0  0
 28  3  1  0  0  0  0
 29  5  1  0  0  0  0
 30  6  1  0  0  0  0
 33 10  1  0  0  0  0
 35 16  1  0  0  0  0
 39 20  1  0  0  0  0
 40 21  1  0  0  0  0
 41 22  1  0  0  0  0
M  END
