omegacsd_SPIRIL_06.log
 OpenBabel10161801213D
Gaussian 16 # PM6 Opt
 57 60  0  0  1  0  0  0  0  0999 V2000
    2.7895   -0.3496    1.2810 C   0  0  0  0  0  0  0  0  0  0  0  0
    3.2747   -0.9312   -0.0603 C   0  0  2  0  0  0  0  0  0  0  0  0
    3.3503   -2.4834    0.0660 C   0  0  0  0  0  0  0  0  0  0  0  0
    2.4486   -3.2815    0.2015 O   0  0  0  0  0  0  0  0  0  0  0  0
    4.6976   -2.8547    0.0385 N   0  0  0  0  0  0  0  0  0  0  0  0
    5.6071   -1.7100   -0.2069 C   0  0  0  0  0  0  0  0  0  0  0  0
    4.6866   -0.5391   -0.4245 N   0  0  0  0  0  0  0  0  0  0  0  0
    5.1886    0.7662   -0.1349 C   0  0  0  0  0  0  0  0  0  0  0  0
    4.3797    1.8903   -0.4198 C   0  0  0  0  0  0  0  0  0  0  0  0
    4.8892    3.1748   -0.2550 C   0  0  0  0  0  0  0  0  0  0  0  0
    6.2026    3.3716    0.1897 C   0  0  0  0  0  0  0  0  0  0  0  0
    7.0042    2.2635    0.4687 C   0  0  0  0  0  0  0  0  0  0  0  0
    6.5101    0.9657    0.3152 C   0  0  0  0  0  0  0  0  0  0  0  0
    2.3323   -0.5396   -1.2126 C   0  0  0  0  0  0  0  0  0  0  0  0
    0.8736   -0.8815   -0.8765 C   0  0  0  0  0  0  0  0  0  0  0  0
    0.4797   -0.1892    0.3957 N   0  0  0  0  0  0  0  0  0  0  0  0
   -0.9804   -0.3836    0.6840 C   0  0  0  0  0  0  0  0  0  0  0  0
   -1.7932    0.5911   -0.1895 C   0  0  0  0  0  0  0  0  0  0  0  0
   -3.2504    0.5183    0.1413 C   0  0  0  0  0  0  0  0  0  0  0  0
   -4.2369    0.3403   -0.7499 C   0  0  0  0  0  0  0  0  0  0  0  0
   -5.6541    0.3051   -0.3042 C   0  0  0  0  0  0  0  0  0  0  0  0
   -6.3076    1.4977    0.0459 C   0  0  0  0  0  0  0  0  0  0  0  0
   -7.6419    1.4793    0.4588 C   0  0  0  0  0  0  0  0  0  0  0  0
   -8.2929    0.2436    0.5117 C   0  0  0  0  0  0  0  0  0  0  0  0
   -7.6731   -0.9627    0.1729 C   0  0  0  0  0  0  0  0  0  0  0  0
   -6.3393   -0.9190   -0.2392 C   0  0  0  0  0  0  0  0  0  0  0  0
   -9.5687    0.2137    0.9054 F   0  0  0  0  0  0  0  0  0  0  0  0
   -4.0462    0.1764   -2.2237 C   0  0  0  0  0  0  0  0  0  0  0  0
    1.3144   -0.7014    1.5342 C   0  0  0  0  0  0  0  0  0  0  0  0
    2.8972    0.7562    1.2737 H   0  0  0  0  0  0  0  0  0  0  0  0
    3.4146   -0.7114    2.1176 H   0  0  0  0  0  0  0  0  0  0  0  0
    5.0308   -3.8071    0.0062 H   0  0  0  0  0  0  0  0  0  0  0  0
    6.2087   -1.8528   -1.1371 H   0  0  0  0  0  0  0  0  0  0  0  0
    6.2971   -1.5750    0.6623 H   0  0  0  0  0  0  0  0  0  0  0  0
    3.3571    1.7509   -0.7852 H   0  0  0  0  0  0  0  0  0  0  0  0
    4.2585    4.0358   -0.4779 H   0  0  0  0  0  0  0  0  0  0  0  0
    6.5926    4.3779    0.3141 H   0  0  0  0  0  0  0  0  0  0  0  0
    8.0281    2.4074    0.8140 H   0  0  0  0  0  0  0  0  0  0  0  0
    7.1576    0.1256    0.5502 H   0  0  0  0  0  0  0  0  0  0  0  0
    2.6379   -1.0344   -2.1532 H   0  0  0  0  0  0  0  0  0  0  0  0
    2.4259    0.5564   -1.3975 H   0  0  0  0  0  0  0  0  0  0  0  0
    0.7487   -1.9889   -0.8196 H   0  0  0  0  0  0  0  0  0  0  0  0
    0.2117   -0.5179   -1.6915 H   0  0  0  0  0  0  0  0  0  0  0  0
   -1.1682   -0.1584    1.7566 H   0  0  0  0  0  0  0  0  0  0  0  0
   -1.3254   -1.4263    0.5163 H   0  0  0  0  0  0  0  0  0  0  0  0
   -1.4254    1.6284   -0.0272 H   0  0  0  0  0  0  0  0  0  0  0  0
   -1.6077    0.3835   -1.2650 H   0  0  0  0  0  0  0  0  0  0  0  0
   -3.4808    0.6324    1.2029 H   0  0  0  0  0  0  0  0  0  0  0  0
   -5.7691    2.4442   -0.0056 H   0  0  0  0  0  0  0  0  0  0  0  0
   -8.1543    2.4004    0.7305 H   0  0  0  0  0  0  0  0  0  0  0  0
   -8.2091   -1.9084    0.2277 H   0  0  0  0  0  0  0  0  0  0  0  0
   -5.8250   -1.8418   -0.5079 H   0  0  0  0  0  0  0  0  0  0  0  0
   -4.4848    1.0228   -2.7715 H   0  0  0  0  0  0  0  0  0  0  0  0
   -2.9841    0.1177   -2.5031 H   0  0  0  0  0  0  0  0  0  0  0  0
   -4.5345   -0.7362   -2.5924 H   0  0  0  0  0  0  0  0  0  0  0  0
    1.2079   -1.8009    1.6852 H   0  0  0  0  0  0  0  0  0  0  0  0
    0.9757   -0.2033    2.4678 H   0  0  0  0  0  0  0  0  0  0  0  0
  1 29  1  0  0  0  0
  1 31  1  0  0  0  0
  2 14  1  6  0  0  0
  2  3  1  0  0  0  0
  2  1  1  0  0  0  0
  3  4  2  0  0  0  0
  5  3  1  0  0  0  0
  6  5  1  0  0  0  0
  6 34  1  0  0  0  0
  7  6  1  0  0  0  0
  7  8  1  0  0  0  0
  7  2  1  0  0  0  0
  8 13  2  0  0  0  0
  9 10  2  0  0  0  0
  9  8  1  0  0  0  0
 10 11  1  0  0  0  0
 11 37  1  0  0  0  0
 11 12  2  0  0  0  0
 12 38  1  0  0  0  0
 13 12  1  0  0  0  0
 13 39  1  0  0  0  0
 14 15  1  0  0  0  0
 15 42  1  0  0  0  0
 15 16  1  0  0  0  0
 16 17  1  0  0  0  0
 16 29  1  0  0  0  0
 17 44  1  0  0  0  0
 18 46  1  0  0  0  0
 18 19  1  0  0  0  0
 18 17  1  0  0  0  0
 19 48  1  0  0  0  0
 20 21  1  0  0  0  0
 20 19  2  0  0  0  0
 21 26  2  0  0  0  0
 21 22  1  0  0  0  0
 22 23  2  0  0  0  0
 23 24  1  0  0  0  0
 23 50  1  0  0  0  0
 24 27  1  0  0  0  0
 25 51  1  0  0  0  0
 25 24  2  0  0  0  0
 26 25  1  0  0  0  0
 28 20  1  0  0  0  0
 29 56  1  0  0  0  0
 29 57  1  0  0  0  0
 30  1  1  0  0  0  0
 32  5  1  0  0  0  0
 33  6  1  0  0  0  0
 35  9  1  0  0  0  0
 36 10  1  0  0  0  0
 40 14  1  0  0  0  0
 41 14  1  0  0  0  0
 43 15  1  0  0  0  0
 45 17  1  0  0  0  0
 47 18  1  0  0  0  0
 49 22  1  0  0  0  0
 52 26  1  0  0  0  0
 53 28  1  0  0  0  0
 54 28  1  0  0  0  0
 55 28  1  0  0  0  0
M  END
