omegapdb_1m5f_18.log
 OpenBabel10161801213D
Gaussian 16 # PM6 Opt
 25 25  0  0  1  0  0  0  0  0999 V2000
    1.0395   -2.1991   -1.3392 O   0  0  0  0  0  0  0  0  0  0  0  0
    1.4610   -1.8962   -0.0598 C   0  0  0  0  0  0  0  0  0  0  0  0
    1.5901   -2.7624    0.7647 O   0  0  0  0  0  0  0  0  0  0  0  0
    1.7287   -0.4423    0.0332 C   0  0  0  0  0  0  0  0  0  0  0  0
    2.8993    0.0660    0.4417 N   0  0  0  0  0  0  0  0  0  0  0  0
    2.8003    1.4373    0.4262 O   0  0  0  0  0  0  0  0  0  0  0  0
    1.5024    1.7861   -0.0097 C   0  0  0  0  0  0  0  0  0  0  0  0
    0.7965    0.6326   -0.2731 C   0  0  0  0  0  0  0  0  0  0  0  0
   -0.5915    0.4719   -0.7600 C   0  0  0  0  0  0  0  0  0  0  0  0
   -1.5109   -0.0529    0.3692 C   0  0  2  0  0  0  0  0  0  0  0  0
   -1.3905   -1.5188    0.4808 N   0  0  0  0  0  0  0  0  0  0  0  0
   -2.9354    0.4581    0.1124 C   0  0  0  0  0  0  0  0  0  0  0  0
   -3.3096    1.5657   -0.1834 O   0  0  0  0  0  0  0  0  0  0  0  0
   -3.8487   -0.5554    0.2860 O   0  0  0  0  0  0  0  0  0  0  0  0
    1.2395    3.2239   -0.0815 C   0  0  0  0  0  0  0  0  0  0  0  0
    0.8460   -3.1708   -1.4420 H   0  0  0  0  0  0  0  0  0  0  0  0
   -0.5970   -0.2355   -1.6239 H   0  0  0  0  0  0  0  0  0  0  0  0
   -0.9798    1.4386   -1.1534 H   0  0  0  0  0  0  0  0  0  0  0  0
   -1.1885    0.4013    1.3529 H   0  0  0  0  0  0  0  0  0  0  0  0
   -1.7703   -1.9883   -0.3379 H   0  0  0  0  0  0  0  0  0  0  0  0
   -1.8930   -1.8704    1.2941 H   0  0  0  0  0  0  0  0  0  0  0  0
   -4.7889   -0.2585    0.1467 H   0  0  0  0  0  0  0  0  0  0  0  0
    1.1366    3.5650   -1.1268 H   0  0  0  0  0  0  0  0  0  0  0  0
    2.0531    3.8173    0.3715 H   0  0  0  0  0  0  0  0  0  0  0  0
    0.3067    3.4950    0.4427 H   0  0  0  0  0  0  0  0  0  0  0  0
  1  2  1  0  0  0  0
  2  4  1  0  0  0  0
  2  3  2  0  0  0  0
  4  5  2  0  0  0  0
  6  5  1  0  0  0  0
  7  6  1  0  0  0  0
  8  7  2  0  0  0  0
  8  4  1  0  0  0  0
  9  8  1  0  0  0  0
  9 10  1  0  0  0  0
 10 11  1  0  0  0  0
 10 19  1  1  0  0  0
 11 21  1  0  0  0  0
 12 14  1  0  0  0  0
 12 10  1  0  0  0  0
 13 12  2  0  0  0  0
 15  7  1  0  0  0  0
 15 24  1  0  0  0  0
 15 25  1  0  0  0  0
 16  1  1  0  0  0  0
 17  9  1  0  0  0  0
 18  9  1  0  0  0  0
 20 11  1  0  0  0  0
 22 14  1  0  0  0  0
 23 15  1  0  0  0  0
M  END
