omegacsd_SEYMIS_00.log
 OpenBabel10161801213D
Gaussian 16 # PM6 Opt
 45 47  0  0  0  0  0  0  0  0999 V2000
    5.3407   -0.8702   -0.4295 O   0  0  0  0  0  0  0  0  0  0  0  0
    4.9320    0.4540   -0.2813 N   0  0  0  0  0  0  0  0  0  0  0  0
    3.6077    0.4699   -0.0726 C   0  0  0  0  0  0  0  0  0  0  0  0
    3.1020   -0.8957   -0.0887 C   0  0  0  0  0  0  0  0  0  0  0  0
    1.7441   -1.4278    0.0975 C   0  0  0  0  0  0  0  0  0  0  0  0
    1.5373   -2.5679    0.4962 O   0  0  0  0  0  0  0  0  0  0  0  0
    0.6952   -0.5671   -0.2473 N   0  0  0  0  0  0  0  0  0  0  0  0
   -0.6712   -0.9190   -0.1097 C   0  0  0  0  0  0  0  0  0  0  0  0
   -1.1849   -2.1603    0.3442 C   0  0  0  0  0  0  0  0  0  0  0  0
   -2.5622   -2.0731    0.3209 N   0  0  0  0  0  0  0  0  0  0  0  0
   -3.4690   -3.1538    0.7177 C   0  0  0  0  0  0  0  0  0  0  0  0
   -2.9389   -0.8034   -0.1385 C   0  0  0  0  0  0  0  0  0  0  0  0
   -1.7632   -0.0710   -0.4111 C   0  0  0  0  0  0  0  0  0  0  0  0
   -4.3232   -0.3692   -0.2883 C   0  0  0  0  0  0  0  0  0  0  0  0
   -5.3395   -0.9937   -0.0454 O   0  0  0  0  0  0  0  0  0  0  0  0
   -4.3680    0.9136   -0.7818 O   0  0  0  0  0  0  0  0  0  0  0  0
   -5.6894    1.5174   -0.9692 C   0  0  0  0  0  0  0  0  0  0  0  0
   -6.2300    1.9920    0.3631 C   0  0  0  0  0  0  0  0  0  0  0  0
    4.2190   -1.6885   -0.3001 C   0  0  0  0  0  0  0  0  0  0  0  0
    4.4400   -3.1284   -0.4094 C   0  0  0  0  0  0  0  0  0  0  0  0
    2.8503    1.7076    0.1524 C   0  0  0  0  0  0  0  0  0  0  0  0
    2.0692    1.8460    1.3117 C   0  0  0  0  0  0  0  0  0  0  0  0
    1.3502    3.0242    1.5235 C   0  0  0  0  0  0  0  0  0  0  0  0
    1.4107    4.0631    0.5878 C   0  0  0  0  0  0  0  0  0  0  0  0
    2.1961    3.9272   -0.5612 C   0  0  0  0  0  0  0  0  0  0  0  0
    2.9210    2.7528   -0.7816 C   0  0  0  0  0  0  0  0  0  0  0  0
    0.8830    0.3722   -0.6022 H   0  0  0  0  0  0  0  0  0  0  0  0
   -0.6235   -3.0305    0.6579 H   0  0  0  0  0  0  0  0  0  0  0  0
   -3.2980   -3.4457    1.7695 H   0  0  0  0  0  0  0  0  0  0  0  0
   -4.5344   -2.8394    0.6231 H   0  0  0  0  0  0  0  0  0  0  0  0
   -3.3253   -4.0435    0.0784 H   0  0  0  0  0  0  0  0  0  0  0  0
   -1.7374    0.9371   -0.7776 H   0  0  0  0  0  0  0  0  0  0  0  0
   -6.3495    0.7792   -1.4587 H   0  0  0  0  0  0  0  0  0  0  0  0
   -5.4373    2.3430   -1.6596 H   0  0  0  0  0  0  0  0  0  0  0  0
   -5.4940    2.6019    0.9026 H   0  0  0  0  0  0  0  0  0  0  0  0
   -7.1379    2.5931    0.2376 H   0  0  0  0  0  0  0  0  0  0  0  0
   -6.4837    1.1408    1.0133 H   0  0  0  0  0  0  0  0  0  0  0  0
    5.3502   -3.4596    0.1169 H   0  0  0  0  0  0  0  0  0  0  0  0
    4.5352   -3.4548   -1.4595 H   0  0  0  0  0  0  0  0  0  0  0  0
    3.5781   -3.6844    0.0253 H   0  0  0  0  0  0  0  0  0  0  0  0
    2.0275    1.0371    2.0425 H   0  0  0  0  0  0  0  0  0  0  0  0
    0.7424    3.1338    2.4215 H   0  0  0  0  0  0  0  0  0  0  0  0
    0.8477    4.9805    0.7571 H   0  0  0  0  0  0  0  0  0  0  0  0
    2.2489    4.7397   -1.2852 H   0  0  0  0  0  0  0  0  0  0  0  0
    3.5461    2.6495   -1.6696 H   0  0  0  0  0  0  0  0  0  0  0  0
  1 19  1  0  0  0  0
  1  2  1  0  0  0  0
  2  3  2  0  0  0  0
  3 21  1  0  0  0  0
  4  3  1  0  0  0  0
  4  5  1  0  0  0  0
  5  6  2  0  0  0  0
  7  8  1  0  0  0  0
  7  5  1  0  0  0  0
  8  9  2  0  0  0  0
  9 28  1  0  0  0  0
 10  9  1  0  0  0  0
 10 11  1  0  0  0  0
 11 29  1  0  0  0  0
 12 10  1  0  0  0  0
 13 12  2  0  0  0  0
 13  8  1  0  0  0  0
 14 12  1  0  0  0  0
 14 15  2  0  0  0  0
 16 14  1  0  0  0  0
 17 16  1  0  0  0  0
 17 18  1  0  0  0  0
 18 35  1  0  0  0  0
 18 37  1  0  0  0  0
 19  4  2  0  0  0  0
 20 19  1  0  0  0  0
 20 40  1  0  0  0  0
 20 38  1  0  0  0  0
 21 22  2  0  0  0  0
 22 23  1  0  0  0  0
 22 41  1  0  0  0  0
 23 42  1  0  0  0  0
 24 43  1  0  0  0  0
 24 23  2  0  0  0  0
 25 24  1  0  0  0  0
 26 25  2  0  0  0  0
 26 21  1  0  0  0  0
 27  7  1  0  0  0  0
 30 11  1  0  0  0  0
 31 11  1  0  0  0  0
 32 13  1  0  0  0  0
 33 17  1  0  0  0  0
 34 17  1  0  0  0  0
 36 18  1  0  0  0  0
 39 20  1  0  0  0  0
 44 25  1  0  0  0  0
 45 26  1  0  0  0  0
M  END
