omegacsd_CUHNEY10_17.log
 OpenBabel10161801213D
Gaussian 16 # PM6 Opt
 44 47  0  0  1  0  0  0  0  0999 V2000
   -1.6288   -5.4025    0.2065 Cl  0  0  0  0  0  0  0  0  0  0  0  0
   -0.6332   -4.0187    0.0523 C   0  0  0  0  0  0  0  0  0  0  0  0
    0.1447   -3.5952    1.1448 C   0  0  0  0  0  0  0  0  0  0  0  0
    0.9434   -2.5056    1.0682 N   0  0  0  0  0  0  0  0  0  0  0  0
    1.0012   -1.8275   -0.1196 C   0  0  0  0  0  0  0  0  0  0  0  0
    1.9053   -0.7215   -0.1831 N   0  0  0  0  0  0  0  0  0  0  0  0
    3.0644   -0.5556    0.6785 C   0  0  0  0  0  0  0  0  0  0  0  0
    3.5789   -1.4079    1.3334 O   0  0  0  0  0  0  0  0  0  0  0  0
    3.5011    0.8714    0.4181 C   0  0  0  0  0  0  0  0  0  0  0  0
    4.5517    1.5084    0.9492 N   0  0  0  0  0  0  0  0  0  0  0  0
    4.7287    2.7960    0.5199 C   0  0  0  0  0  0  0  0  0  0  0  0
    3.8733    3.4017   -0.4227 C   0  0  0  0  0  0  0  0  0  0  0  0
    2.7978    2.7459   -0.9610 N   0  0  0  0  0  0  0  0  0  0  0  0
    2.6225    1.4913   -0.5258 C   0  0  0  0  0  0  0  0  0  0  0  0
    1.5232    0.5205   -0.9250 C   0  0  2  0  0  0  0  0  0  0  0  0
    0.3012    1.0251   -0.3434 O   0  0  0  0  0  0  0  0  0  0  0  0
   -0.8464    0.9757   -1.1585 C   0  0  0  0  0  0  0  0  0  0  0  0
   -0.8208    0.4497   -2.2545 O   0  0  0  0  0  0  0  0  0  0  0  0
   -1.8760    1.6729   -0.5554 N   0  0  0  0  0  0  0  0  0  0  0  0
   -1.7695    2.0652    0.8826 C   0  0  0  0  0  0  0  0  0  0  0  0
   -2.9687    2.9412    1.2739 C   0  0  0  0  0  0  0  0  0  0  0  0
   -4.2827    2.2265    1.1236 N   0  0  0  0  0  0  0  0  0  0  0  0
   -4.2267    1.1666    0.0720 C   0  0  0  0  0  0  0  0  0  0  0  0
   -3.2587    1.4740   -1.0838 C   0  0  0  0  0  0  0  0  0  0  0  0
   -5.3727    3.2105    0.8540 C   0  0  0  0  0  0  0  0  0  0  0  0
    0.2277   -2.1892   -1.2477 C   0  0  0  0  0  0  0  0  0  0  0  0
   -0.5973   -3.3075   -1.1520 C   0  0  0  0  0  0  0  0  0  0  0  0
    0.1305   -4.1256    2.1070 H   0  0  0  0  0  0  0  0  0  0  0  0
    5.5840    3.3315    0.9518 H   0  0  0  0  0  0  0  0  0  0  0  0
    4.0309    4.4307   -0.7701 H   0  0  0  0  0  0  0  0  0  0  0  0
    1.4068    0.3469   -2.0239 H   0  0  0  0  0  0  0  0  0  0  0  0
   -0.8135    2.6253    1.0172 H   0  0  0  0  0  0  0  0  0  0  0  0
   -1.7113    1.1619    1.5330 H   0  0  0  0  0  0  0  0  0  0  0  0
   -2.9304    3.8949    0.7016 H   0  0  0  0  0  0  0  0  0  0  0  0
   -2.8874    3.2072    2.3538 H   0  0  0  0  0  0  0  0  0  0  0  0
   -5.2408    0.9618   -0.3308 H   0  0  0  0  0  0  0  0  0  0  0  0
   -3.9148    0.2316    0.5961 H   0  0  0  0  0  0  0  0  0  0  0  0
   -3.5473    2.4150   -1.6071 H   0  0  0  0  0  0  0  0  0  0  0  0
   -3.2733    0.6639   -1.8483 H   0  0  0  0  0  0  0  0  0  0  0  0
   -5.2855    3.7567   -0.0962 H   0  0  0  0  0  0  0  0  0  0  0  0
   -5.4054    3.9447    1.6760 H   0  0  0  0  0  0  0  0  0  0  0  0
   -6.3402    2.6816    0.8653 H   0  0  0  0  0  0  0  0  0  0  0  0
    0.2592   -1.6061   -2.1719 H   0  0  0  0  0  0  0  0  0  0  0  0
   -1.2043   -3.6237   -2.0032 H   0  0  0  0  0  0  0  0  0  0  0  0
  2  1  1  0  0  0  0
  2  3  2  0  0  0  0
  3 28  1  0  0  0  0
  4  3  1  0  0  0  0
  5  4  2  0  0  0  0
  6  5  1  0  0  0  0
  6  7  1  0  0  0  0
  7  8  2  0  0  0  0
  9  7  1  0  0  0  0
  9 10  2  0  0  0  0
 11 10  1  0  0  0  0
 11 29  1  0  0  0  0
 12 11  2  0  0  0  0
 13 14  2  0  0  0  0
 13 12  1  0  0  0  0
 14  9  1  0  0  0  0
 15 31  1  6  0  0  0
 15 14  1  0  0  0  0
 15 16  1  0  0  0  0
 15  6  1  0  0  0  0
 17 19  1  0  0  0  0
 17 16  1  0  0  0  0
 18 17  2  0  0  0  0
 19 20  1  0  0  0  0
 20 32  1  0  0  0  0
 20 21  1  0  0  0  0
 20 33  1  0  0  0  0
 21 35  1  0  0  0  0
 22 21  1  0  0  0  0
 23 37  1  0  0  0  0
 23 22  1  0  0  0  0
 24 19  1  0  0  0  0
 24 23  1  0  0  0  0
 25 42  1  0  0  0  0
 25 22  1  0  0  0  0
 25 41  1  0  0  0  0
 26 27  2  0  0  0  0
 26  5  1  0  0  0  0
 27  2  1  0  0  0  0
 30 12  1  0  0  0  0
 34 21  1  0  0  0  0
 36 23  1  0  0  0  0
 38 24  1  0  0  0  0
 39 24  1  0  0  0  0
 40 25  1  0  0  0  0
 43 26  1  0  0  0  0
 44 27  1  0  0  0  0
M  END
