omegacsd_SPIRIL_21.log
 OpenBabel10161801213D
Gaussian 16 # PM6 Opt
 57 60  0  0  1  0  0  0  0  0999 V2000
   -3.3606   -0.7003   -1.3030 C   0  0  0  0  0  0  0  0  0  0  0  0
   -3.1367   -0.9456    0.1937 C   0  0  2  0  0  0  0  0  0  0  0  0
   -4.5174   -1.2861    0.8504 C   0  0  0  0  0  0  0  0  0  0  0  0
   -5.3842   -2.0282    0.4471 O   0  0  0  0  0  0  0  0  0  0  0  0
   -4.6063   -0.5585    2.0405 N   0  0  0  0  0  0  0  0  0  0  0  0
   -3.3776    0.2421    2.2953 C   0  0  0  0  0  0  0  0  0  0  0  0
   -2.6235    0.2441    0.9899 N   0  0  0  0  0  0  0  0  0  0  0  0
   -2.6438    1.5369    0.3192 C   0  0  0  0  0  0  0  0  0  0  0  0
   -1.4134    1.9992   -0.1758 C   0  0  0  0  0  0  0  0  0  0  0  0
   -1.3407    3.2556   -0.7805 C   0  0  0  0  0  0  0  0  0  0  0  0
   -2.4854    4.0508   -0.8959 C   0  0  0  0  0  0  0  0  0  0  0  0
   -3.7112    3.5844   -0.4088 C   0  0  0  0  0  0  0  0  0  0  0  0
   -3.7991    2.3293    0.1969 C   0  0  0  0  0  0  0  0  0  0  0  0
   -2.1674   -2.1192    0.4578 C   0  0  0  0  0  0  0  0  0  0  0  0
   -1.8279   -2.8807   -0.8340 C   0  0  0  0  0  0  0  0  0  0  0  0
   -1.2859   -2.0345   -1.9318 N   0  0  0  0  0  0  0  0  0  0  0  0
    0.1814   -1.7866   -1.8318 C   0  0  0  0  0  0  0  0  0  0  0  0
    0.6668   -0.9592   -0.6271 C   0  0  0  0  0  0  0  0  0  0  0  0
    2.1478   -0.7678   -0.6252 C   0  0  0  0  0  0  0  0  0  0  0  0
    2.8331   -0.2292    0.3972 C   0  0  0  0  0  0  0  0  0  0  0  0
    4.3059   -0.0726    0.3175 C   0  0  0  0  0  0  0  0  0  0  0  0
    4.8735    0.7572   -0.6636 C   0  0  0  0  0  0  0  0  0  0  0  0
    6.2591    0.9149   -0.7449 C   0  0  0  0  0  0  0  0  0  0  0  0
    7.0513    0.2214    0.1741 C   0  0  0  0  0  0  0  0  0  0  0  0
    6.5220   -0.6140    1.1623 C   0  0  0  0  0  0  0  0  0  0  0  0
    5.1342   -0.7531    1.2263 C   0  0  0  0  0  0  0  0  0  0  0  0
    8.3773    0.3636    0.1055 F   0  0  0  0  0  0  0  0  0  0  0  0
    2.1998    0.2378    1.6695 C   0  0  0  0  0  0  0  0  0  0  0  0
   -2.0727   -0.7747   -2.1341 C   0  0  0  0  0  0  0  0  0  0  0  0
   -4.0813   -1.4685   -1.6737 H   0  0  0  0  0  0  0  0  0  0  0  0
   -3.8627    0.2698   -1.4848 H   0  0  0  0  0  0  0  0  0  0  0  0
   -5.3796   -0.5895    2.6855 H   0  0  0  0  0  0  0  0  0  0  0  0
   -2.7270   -0.2665    3.0483 H   0  0  0  0  0  0  0  0  0  0  0  0
   -3.6219    1.2611    2.6645 H   0  0  0  0  0  0  0  0  0  0  0  0
   -0.5210    1.3657   -0.0897 H   0  0  0  0  0  0  0  0  0  0  0  0
   -0.3862    3.6174   -1.1621 H   0  0  0  0  0  0  0  0  0  0  0  0
   -2.4233    5.0306   -1.3658 H   0  0  0  0  0  0  0  0  0  0  0  0
   -4.6042    4.2016   -0.5047 H   0  0  0  0  0  0  0  0  0  0  0  0
   -4.7584    1.9681    0.5638 H   0  0  0  0  0  0  0  0  0  0  0  0
   -1.2258   -1.7292    0.9112 H   0  0  0  0  0  0  0  0  0  0  0  0
   -2.5864   -2.8188    1.2042 H   0  0  0  0  0  0  0  0  0  0  0  0
   -2.7450   -3.3733   -1.2361 H   0  0  0  0  0  0  0  0  0  0  0  0
   -1.1105   -3.6988   -0.6119 H   0  0  0  0  0  0  0  0  0  0  0  0
    0.4916   -1.2914   -2.7797 H   0  0  0  0  0  0  0  0  0  0  0  0
    0.6825   -2.7808   -1.8287 H   0  0  0  0  0  0  0  0  0  0  0  0
    0.1591    0.0380   -0.6162 H   0  0  0  0  0  0  0  0  0  0  0  0
    0.3337   -1.4459    0.3194 H   0  0  0  0  0  0  0  0  0  0  0  0
    2.6697   -1.0977   -1.5253 H   0  0  0  0  0  0  0  0  0  0  0  0
    4.2272    1.2847   -1.3653 H   0  0  0  0  0  0  0  0  0  0  0  0
    6.7035    1.5582   -1.5022 H   0  0  0  0  0  0  0  0  0  0  0  0
    7.1684   -1.1419    1.8612 H   0  0  0  0  0  0  0  0  0  0  0  0
    4.6891   -1.3979    1.9841 H   0  0  0  0  0  0  0  0  0  0  0  0
    1.8542   -0.6131    2.2733 H   0  0  0  0  0  0  0  0  0  0  0  0
    1.3247    0.8745    1.4763 H   0  0  0  0  0  0  0  0  0  0  0  0
    2.8902    0.8227    2.2915 H   0  0  0  0  0  0  0  0  0  0  0  0
   -2.3396   -0.7627   -3.2174 H   0  0  0  0  0  0  0  0  0  0  0  0
   -1.4600    0.1340   -1.9493 H   0  0  0  0  0  0  0  0  0  0  0  0
  2  1  1  6  0  0  0
  2 14  1  0  0  0  0
  2  3  1  0  0  0  0
  2  7  1  0  0  0  0
  3  5  1  0  0  0  0
  4  3  2  0  0  0  0
  5  6  1  0  0  0  0
  5 32  1  0  0  0  0
  6 34  1  0  0  0  0
  6 33  1  0  0  0  0
  7  6  1  0  0  0  0
  8  7  1  0  0  0  0
  9 35  1  0  0  0  0
  9  8  2  0  0  0  0
 10  9  1  0  0  0  0
 11 10  2  0  0  0  0
 11 12  1  0  0  0  0
 12 13  2  0  0  0  0
 13  8  1  0  0  0  0
 13 39  1  0  0  0  0
 14 40  1  0  0  0  0
 14 41  1  0  0  0  0
 15 43  1  0  0  0  0
 15 14  1  0  0  0  0
 16 17  1  0  0  0  0
 16 15  1  0  0  0  0
 17 45  1  0  0  0  0
 17 18  1  0  0  0  0
 18 19  1  0  0  0  0
 18 46  1  0  0  0  0
 18 47  1  0  0  0  0
 19 20  2  0  0  0  0
 20 28  1  0  0  0  0
 21 20  1  0  0  0  0
 21 26  2  0  0  0  0
 22 21  1  0  0  0  0
 23 22  2  0  0  0  0
 23 24  1  0  0  0  0
 24 25  2  0  0  0  0
 25 26  1  0  0  0  0
 25 51  1  0  0  0  0
 26 52  1  0  0  0  0
 27 24  1  0  0  0  0
 28 53  1  0  0  0  0
 28 55  1  0  0  0  0
 29 57  1  0  0  0  0
 29 16  1  0  0  0  0
 29  1  1  0  0  0  0
 30  1  1  0  0  0  0
 31  1  1  0  0  0  0
 36 10  1  0  0  0  0
 37 11  1  0  0  0  0
 38 12  1  0  0  0  0
 42 15  1  0  0  0  0
 44 17  1  0  0  0  0
 48 19  1  0  0  0  0
 49 22  1  0  0  0  0
 50 23  1  0  0  0  0
 54 28  1  0  0  0  0
 56 29  1  0  0  0  0
M  END
