omegapdb_1xom_21.log
 OpenBabel10161801213D
Gaussian 16 # PM6 Opt
 50 52  0  0  1  0  0  0  0  0999 V2000
   -5.1278    3.0711    0.2574 O   0  0  0  0  0  0  0  0  0  0  0  0
   -5.0125    1.7055    0.0469 C   0  0  0  0  0  0  0  0  0  0  0  0
   -5.9409    1.0371    0.4134 O   0  0  0  0  0  0  0  0  0  0  0  0
   -3.7169    1.2593   -0.6168 C   0  0  1  0  0  0  0  0  0  0  0  0
   -2.5757    1.2943    0.4202 C   0  0  0  0  0  0  0  0  0  0  0  0
   -2.3915   -0.0524    1.1229 C   0  0  0  0  0  0  0  0  0  0  0  0
   -2.0124   -1.1870    0.1262 C   0  0  2  0  0  0  0  0  0  0  0  0
   -2.5823   -0.9067   -1.2940 C   0  0  0  0  0  0  0  0  0  0  0  0
   -3.9050   -0.1438   -1.2279 C   0  0  0  0  0  0  0  0  0  0  0  0
   -2.6444   -2.4237    0.6319 C   0  0  0  0  0  0  0  0  0  0  0  0
   -3.1601   -3.3795    1.0237 N   0  0  0  0  0  0  0  0  0  0  0  0
   -0.4971   -1.3551    0.0260 C   0  0  0  0  0  0  0  0  0  0  0  0
    0.1207   -2.6021    0.1297 C   0  0  0  0  0  0  0  0  0  0  0  0
    1.5138   -2.7238    0.0154 C   0  0  0  0  0  0  0  0  0  0  0  0
    2.3009   -1.5980   -0.2133 C   0  0  0  0  0  0  0  0  0  0  0  0
    3.6771   -1.6070   -0.3528 O   0  0  0  0  0  0  0  0  0  0  0  0
    4.3593   -2.8719   -0.1688 C   0  0  0  0  0  0  0  0  0  0  0  0
    1.6822   -0.3179   -0.3262 C   0  0  0  0  0  0  0  0  0  0  0  0
    0.2936   -0.2154   -0.2036 C   0  0  0  0  0  0  0  0  0  0  0  0
    2.2822    0.8826   -0.5992 O   0  0  0  0  0  0  0  0  0  0  0  0
    3.7371    1.0334   -0.4587 C   0  0  0  0  0  0  0  0  0  0  0  0
    4.1403    1.0128    1.0228 C   0  0  0  0  0  0  0  0  0  0  0  0
    5.0157    2.2563    1.2384 C   0  0  0  0  0  0  0  0  0  0  0  0
    4.6290    3.2601    0.1344 C   0  0  0  0  0  0  0  0  0  0  0  0
    3.9771    2.4520   -1.0007 C   0  0  0  0  0  0  0  0  0  0  0  0
   -4.3672    3.6133   -0.0371 H   0  0  0  0  0  0  0  0  0  0  0  0
   -3.4710    1.9727   -1.4424 H   0  0  0  0  0  0  0  0  0  0  0  0
   -2.7522    2.0850    1.1758 H   0  0  0  0  0  0  0  0  0  0  0  0
   -1.6256    1.5727   -0.0922 H   0  0  0  0  0  0  0  0  0  0  0  0
   -3.3299   -0.3140    1.6574 H   0  0  0  0  0  0  0  0  0  0  0  0
   -1.6155    0.0282    1.9094 H   0  0  0  0  0  0  0  0  0  0  0  0
   -1.8412   -0.3329   -1.8861 H   0  0  0  0  0  0  0  0  0  0  0  0
   -2.7167   -1.8593   -1.8435 H   0  0  0  0  0  0  0  0  0  0  0  0
   -4.3483   -0.0580   -2.2383 H   0  0  0  0  0  0  0  0  0  0  0  0
   -4.6451   -0.7225   -0.6290 H   0  0  0  0  0  0  0  0  0  0  0  0
   -0.4598   -3.5091    0.3007 H   0  0  0  0  0  0  0  0  0  0  0  0
    1.9625   -3.7108    0.1026 H   0  0  0  0  0  0  0  0  0  0  0  0
    5.4079   -2.5791   -0.3081 H   0  0  0  0  0  0  0  0  0  0  0  0
    4.0476   -3.5861   -0.9366 H   0  0  0  0  0  0  0  0  0  0  0  0
    4.1884   -3.2558    0.8408 H   0  0  0  0  0  0  0  0  0  0  0  0
   -0.1620    0.7757   -0.2926 H   0  0  0  0  0  0  0  0  0  0  0  0
    4.2212    0.2420   -1.0652 H   0  0  0  0  0  0  0  0  0  0  0  0
    3.2355    1.0511    1.6584 H   0  0  0  0  0  0  0  0  0  0  0  0
    4.6636    0.0788    1.2856 H   0  0  0  0  0  0  0  0  0  0  0  0
    4.8671    2.6852    2.2427 H   0  0  0  0  0  0  0  0  0  0  0  0
    6.0860    1.9945    1.1667 H   0  0  0  0  0  0  0  0  0  0  0  0
    3.9208    4.0107    0.5277 H   0  0  0  0  0  0  0  0  0  0  0  0
    5.5084    3.8192   -0.2240 H   0  0  0  0  0  0  0  0  0  0  0  0
    3.0154    2.9030   -1.3163 H   0  0  0  0  0  0  0  0  0  0  0  0
    4.6142    2.4255   -1.8995 H   0  0  0  0  0  0  0  0  0  0  0  0
  2  1  1  0  0  0  0
  2  3  2  0  0  0  0
  4 27  1  6  0  0  0
  4  2  1  0  0  0  0
  4  5  1  0  0  0  0
  5  6  1  0  0  0  0
  5 28  1  0  0  0  0
  6 30  1  0  0  0  0
  6 31  1  0  0  0  0
  7 12  1  6  0  0  0
  7 10  1  0  0  0  0
  7  6  1  0  0  0  0
  8  9  1  0  0  0  0
  8  7  1  0  0  0  0
  9 35  1  0  0  0  0
  9  4  1  0  0  0  0
 10 11  3  0  0  0  0
 12 13  1  0  0  0  0
 13 36  1  0  0  0  0
 14 37  1  0  0  0  0
 14 13  2  0  0  0  0
 15 14  1  0  0  0  0
 16 15  1  0  0  0  0
 16 17  1  0  0  0  0
 17 40  1  0  0  0  0
 18 15  2  0  0  0  0
 18 19  1  0  0  0  0
 19 12  2  0  0  0  0
 20 21  1  0  0  0  0
 20 18  1  0  0  0  0
 21 22  1  0  0  0  0
 22 23  1  0  0  0  0
 22 44  1  0  0  0  0
 22 43  1  0  0  0  0
 23 45  1  0  0  0  0
 24 47  1  0  0  0  0
 24 23  1  0  0  0  0
 25 21  1  0  0  0  0
 25 24  1  0  0  0  0
 26  1  1  0  0  0  0
 29  5  1  0  0  0  0
 32  8  1  0  0  0  0
 33  8  1  0  0  0  0
 34  9  1  0  0  0  0
 38 17  1  0  0  0  0
 39 17  1  0  0  0  0
 41 19  1  0  0  0  0
 42 21  1  0  0  0  0
 46 23  1  0  0  0  0
 48 24  1  0  0  0  0
 49 25  1  0  0  0  0
 50 25  1  0  0  0  0
M  END
