omegapdb_1xom_12.log
 OpenBabel10161801213D
Gaussian 16 # PM6 Opt
 50 52  0  0  1  0  0  0  0  0999 V2000
    6.8089    0.3254    0.0218 O   0  0  0  0  0  0  0  0  0  0  0  0
    5.6610   -0.4247    0.1715 C   0  0  0  0  0  0  0  0  0  0  0  0
    5.7166   -1.4937    0.7277 O   0  0  0  0  0  0  0  0  0  0  0  0
    4.4913    0.3236   -0.4366 C   0  0  1  0  0  0  0  0  0  0  0  0
    3.7280   -0.6233   -1.3853 C   0  0  0  0  0  0  0  0  0  0  0  0
    2.2420   -0.2680   -1.4463 C   0  0  0  0  0  0  0  0  0  0  0  0
    1.5489   -0.4611   -0.0663 C   0  0  2  0  0  0  0  0  0  0  0  0
    2.5242   -0.1470    1.1060 C   0  0  0  0  0  0  0  0  0  0  0  0
    3.5992    0.8627    0.7000 C   0  0  0  0  0  0  0  0  0  0  0  0
    1.1805   -1.8865    0.0626 C   0  0  0  0  0  0  0  0  0  0  0  0
    0.9111   -3.0052    0.1601 N   0  0  0  0  0  0  0  0  0  0  0  0
    0.3058    0.4271   -0.0169 C   0  0  0  0  0  0  0  0  0  0  0  0
    0.4464    1.7965    0.1836 C   0  0  0  0  0  0  0  0  0  0  0  0
   -0.6753    2.6473    0.2204 C   0  0  0  0  0  0  0  0  0  0  0  0
   -1.9436    2.1139    0.0497 C   0  0  0  0  0  0  0  0  0  0  0  0
   -3.1378    2.7964    0.0576 O   0  0  0  0  0  0  0  0  0  0  0  0
   -3.0768    4.2256    0.2870 C   0  0  0  0  0  0  0  0  0  0  0  0
   -2.0996    0.7019   -0.1687 C   0  0  0  0  0  0  0  0  0  0  0  0
   -0.9827   -0.1218   -0.2058 C   0  0  0  0  0  0  0  0  0  0  0  0
   -3.4012    0.3176   -0.3295 O   0  0  0  0  0  0  0  0  0  0  0  0
   -3.7053   -1.1017   -0.5661 C   0  0  0  0  0  0  0  0  0  0  0  0
   -5.1933   -1.0524   -0.9488 C   0  0  0  0  0  0  0  0  0  0  0  0
   -5.9517   -1.8944    0.0908 C   0  0  0  0  0  0  0  0  0  0  0  0
   -4.8937   -2.6714    0.8976 C   0  0  0  0  0  0  0  0  0  0  0  0
   -3.5694   -1.9089    0.7331 C   0  0  0  0  0  0  0  0  0  0  0  0
    7.6127   -0.1119    0.4090 H   0  0  0  0  0  0  0  0  0  0  0  0
    4.8882    1.1941   -1.0217 H   0  0  0  0  0  0  0  0  0  0  0  0
    4.1725   -0.5796   -2.3977 H   0  0  0  0  0  0  0  0  0  0  0  0
    3.8419   -1.6781   -1.0494 H   0  0  0  0  0  0  0  0  0  0  0  0
    1.7321   -0.8812   -2.2150 H   0  0  0  0  0  0  0  0  0  0  0  0
    2.1156    0.7814   -1.7807 H   0  0  0  0  0  0  0  0  0  0  0  0
    1.9543    0.2225    1.9802 H   0  0  0  0  0  0  0  0  0  0  0  0
    3.0221   -1.0809    1.4494 H   0  0  0  0  0  0  0  0  0  0  0  0
    4.2115    1.1391    1.5808 H   0  0  0  0  0  0  0  0  0  0  0  0
    3.1162    1.8082    0.3653 H   0  0  0  0  0  0  0  0  0  0  0  0
    1.4370    2.2377    0.3161 H   0  0  0  0  0  0  0  0  0  0  0  0
   -0.5280    3.7110    0.3831 H   0  0  0  0  0  0  0  0  0  0  0  0
   -2.5190    4.7182   -0.5139 H   0  0  0  0  0  0  0  0  0  0  0  0
   -4.1404    4.4972    0.2496 H   0  0  0  0  0  0  0  0  0  0  0  0
   -2.6542    4.4376    1.2728 H   0  0  0  0  0  0  0  0  0  0  0  0
   -1.1071   -1.1886   -0.3793 H   0  0  0  0  0  0  0  0  0  0  0  0
   -3.0534   -1.4609   -1.3834 H   0  0  0  0  0  0  0  0  0  0  0  0
   -5.3492   -1.4294   -1.9722 H   0  0  0  0  0  0  0  0  0  0  0  0
   -5.5443    0.0006   -0.9475 H   0  0  0  0  0  0  0  0  0  0  0  0
   -6.6704   -2.5771   -0.3904 H   0  0  0  0  0  0  0  0  0  0  0  0
   -6.5401   -1.2398    0.7584 H   0  0  0  0  0  0  0  0  0  0  0  0
   -5.1789   -2.7572    1.9589 H   0  0  0  0  0  0  0  0  0  0  0  0
   -4.7955   -3.7036    0.5171 H   0  0  0  0  0  0  0  0  0  0  0  0
   -2.7050   -2.5924    0.7145 H   0  0  0  0  0  0  0  0  0  0  0  0
   -3.4042   -1.2199    1.5844 H   0  0  0  0  0  0  0  0  0  0  0  0
  1  2  1  0  0  0  0
  1 26  1  0  0  0  0
  2  3  2  0  0  0  0
  4 27  1  6  0  0  0
  4  2  1  0  0  0  0
  4  9  1  0  0  0  0
  5 29  1  0  0  0  0
  5  4  1  0  0  0  0
  6  5  1  0  0  0  0
  6  7  1  0  0  0  0
  7 12  1  1  0  0  0
  7 10  1  0  0  0  0
  7  8  1  0  0  0  0
  8 33  1  0  0  0  0
  8 32  1  0  0  0  0
  9  8  1  0  0  0  0
  9 34  1  0  0  0  0
 10 11  3  0  0  0  0
 12 13  2  0  0  0  0
 13 14  1  0  0  0  0
 13 36  1  0  0  0  0
 14 37  1  0  0  0  0
 15 16  1  0  0  0  0
 15 14  2  0  0  0  0
 16 17  1  0  0  0  0
 17 40  1  0  0  0  0
 18 15  1  0  0  0  0
 19 18  2  0  0  0  0
 19 12  1  0  0  0  0
 20 18  1  0  0  0  0
 21 20  1  0  0  0  0
 21 25  1  0  0  0  0
 22 44  1  0  0  0  0
 22 21  1  0  0  0  0
 22 23  1  0  0  0  0
 23 46  1  0  0  0  0
 23 24  1  0  0  0  0
 24 47  1  0  0  0  0
 25 24  1  0  0  0  0
 25 50  1  0  0  0  0
 28  5  1  0  0  0  0
 30  6  1  0  0  0  0
 31  6  1  0  0  0  0
 35  9  1  0  0  0  0
 38 17  1  0  0  0  0
 39 17  1  0  0  0  0
 41 19  1  0  0  0  0
 42 21  1  0  0  0  0
 43 22  1  0  0  0  0
 45 23  1  0  0  0  0
 48 24  1  0  0  0  0
 49 25  1  0  0  0  0
M  END
