omegapdb_1gs5_10.log
 OpenBabel10161801213D
Gaussian 16 # PM6 Opt
 24 23  0  0  1  0  0  0  0  0999 V2000
   -0.6009    0.2137    0.1490 C   0  0  2  0  0  0  0  0  0  0  0  0
   -0.4934    1.7137   -0.1451 C   0  0  0  0  0  0  0  0  0  0  0  0
   -0.9661    2.3638   -1.0421 O   0  0  0  0  0  0  0  0  0  0  0  0
    0.2924    2.3151    0.8121 O   0  0  0  0  0  0  0  0  0  0  0  0
    0.6477   -0.5130   -0.3860 C   0  0  0  0  0  0  0  0  0  0  0  0
    1.8612   -0.2641    0.5123 C   0  0  0  0  0  0  0  0  0  0  0  0
    3.1311   -0.7151   -0.1609 C   0  0  0  0  0  0  0  0  0  0  0  0
    3.2816   -1.1016   -1.2893 O   0  0  0  0  0  0  0  0  0  0  0  0
    4.2664   -0.6655    0.6263 O   0  0  0  0  0  0  0  0  0  0  0  0
   -1.8236   -0.2914   -0.4959 N   0  0  0  0  0  0  0  0  0  0  0  0
   -2.8545   -0.8609    0.2785 C   0  0  0  0  0  0  0  0  0  0  0  0
   -2.7126   -0.9876    1.4804 O   0  0  0  0  0  0  0  0  0  0  0  0
   -4.0615   -1.2847   -0.5001 C   0  0  0  0  0  0  0  0  0  0  0  0
   -0.6886    0.0640    1.2709 H   0  0  0  0  0  0  0  0  0  0  0  0
    0.3817    3.2985    0.6760 H   0  0  0  0  0  0  0  0  0  0  0  0
    0.8726   -0.2098   -1.4319 H   0  0  0  0  0  0  0  0  0  0  0  0
    0.4398   -1.6043   -0.4453 H   0  0  0  0  0  0  0  0  0  0  0  0
    1.9367    0.8219    0.7666 H   0  0  0  0  0  0  0  0  0  0  0  0
    1.7281   -0.7836    1.4854 H   0  0  0  0  0  0  0  0  0  0  0  0
    4.1393   -0.3467    1.5451 H   0  0  0  0  0  0  0  0  0  0  0  0
   -1.9242   -0.1167   -1.4930 H   0  0  0  0  0  0  0  0  0  0  0  0
   -4.5610   -0.4387   -0.9938 H   0  0  0  0  0  0  0  0  0  0  0  0
   -3.8275   -2.0322   -1.2709 H   0  0  0  0  0  0  0  0  0  0  0  0
   -4.8035   -1.7434    0.1767 H   0  0  0  0  0  0  0  0  0  0  0  0
  1 14  1  1  0  0  0
  2  1  1  0  0  0  0
  2  4  1  0  0  0  0
  3  2  2  0  0  0  0
  5  1  1  0  0  0  0
  5  6  1  0  0  0  0
  6 18  1  0  0  0  0
  6 19  1  0  0  0  0
  7  6  1  0  0  0  0
  7  9  1  0  0  0  0
  8  7  2  0  0  0  0
  9 20  1  0  0  0  0
 10  1  1  0  0  0  0
 10 11  1  0  0  0  0
 11 12  2  0  0  0  0
 13 24  1  0  0  0  0
 13 11  1  0  0  0  0
 15  4  1  0  0  0  0
 16  5  1  0  0  0  0
 17  5  1  0  0  0  0
 21 10  1  0  0  0  0
 22 13  1  0  0  0  0
 23 13  1  0  0  0  0
M  END
