omegapdb_1gs5_11.log
 OpenBabel10161801213D
Gaussian 16 # PM6 Opt
 24 23  0  0  1  0  0  0  0  0999 V2000
   -0.6976    0.6037    0.7556 C   0  0  2  0  0  0  0  0  0  0  0  0
   -1.6529    1.6131    0.0949 C   0  0  0  0  0  0  0  0  0  0  0  0
   -2.8295    1.5090   -0.1456 O   0  0  0  0  0  0  0  0  0  0  0  0
   -0.9921    2.7887   -0.1596 O   0  0  0  0  0  0  0  0  0  0  0  0
    0.6505    0.5753    0.0147 C   0  0  0  0  0  0  0  0  0  0  0  0
    1.6846   -0.2617    0.7658 C   0  0  0  0  0  0  0  0  0  0  0  0
    3.0266   -0.2830    0.0961 C   0  0  0  0  0  0  0  0  0  0  0  0
    3.9219   -1.0837    0.2317 O   0  0  0  0  0  0  0  0  0  0  0  0
    3.2002    0.7918   -0.7458 O   0  0  0  0  0  0  0  0  0  0  0  0
   -1.3591   -0.7132    0.8323 N   0  0  0  0  0  0  0  0  0  0  0  0
   -1.5428   -1.5487   -0.2980 C   0  0  0  0  0  0  0  0  0  0  0  0
   -0.9918   -1.3221   -1.3557 O   0  0  0  0  0  0  0  0  0  0  0  0
   -2.4164   -2.7410   -0.0372 C   0  0  0  0  0  0  0  0  0  0  0  0
   -0.5291    0.9665    1.8114 H   0  0  0  0  0  0  0  0  0  0  0  0
   -1.5740    3.4724   -0.5927 H   0  0  0  0  0  0  0  0  0  0  0  0
    0.5161    0.1759   -1.0204 H   0  0  0  0  0  0  0  0  0  0  0  0
    1.0209    1.6179   -0.1212 H   0  0  0  0  0  0  0  0  0  0  0  0
    1.8208    0.1086    1.8063 H   0  0  0  0  0  0  0  0  0  0  0  0
    1.3276   -1.3144    0.8687 H   0  0  0  0  0  0  0  0  0  0  0  0
    4.0871    0.7808   -1.1984 H   0  0  0  0  0  0  0  0  0  0  0  0
   -1.9767   -0.8303    1.6348 H   0  0  0  0  0  0  0  0  0  0  0  0
   -3.4743   -2.4566    0.0618 H   0  0  0  0  0  0  0  0  0  0  0  0
   -2.1292   -3.3037    0.8600 H   0  0  0  0  0  0  0  0  0  0  0  0
   -2.3577   -3.4407   -0.8892 H   0  0  0  0  0  0  0  0  0  0  0  0
  1 10  1  0  0  0  0
  1 14  1  1  0  0  0
  2  1  1  0  0  0  0
  3  2  2  0  0  0  0
  4  2  1  0  0  0  0
  5  1  1  0  0  0  0
  5  6  1  0  0  0  0
  6 19  1  0  0  0  0
  6 18  1  0  0  0  0
  7  8  2  0  0  0  0
  7  6  1  0  0  0  0
  9  7  1  0  0  0  0
 10 21  1  0  0  0  0
 11 13  1  0  0  0  0
 11 10  1  0  0  0  0
 12 11  2  0  0  0  0
 13 22  1  0  0  0  0
 13 23  1  0  0  0  0
 15  4  1  0  0  0  0
 16  5  1  0  0  0  0
 17  5  1  0  0  0  0
 20  9  1  0  0  0  0
 24 13  1  0  0  0  0
M  END
