omegapdb_2f7p_17.log
 OpenBabel10161801213D
Gaussian 16 # PM6 Opt
 34 35  0  0  1  0  0  0  0  0999 V2000
   -1.1938    0.2624   -0.9300 C   0  0  1  0  0  0  0  0  0  0  0  0
    0.2032   -0.1497   -0.6279 N   0  0  0  0  0  0  0  0  0  0  0  0
    1.2262    0.8354   -1.1002 C   0  0  0  0  0  0  0  0  0  0  0  0
    2.5584    0.4968   -0.4752 C   0  0  0  0  0  0  0  0  0  0  0  0
    3.4766   -0.3080   -1.1639 C   0  0  0  0  0  0  0  0  0  0  0  0
    4.7108   -0.6133   -0.5827 C   0  0  0  0  0  0  0  0  0  0  0  0
    5.0308   -0.1220    0.6868 C   0  0  0  0  0  0  0  0  0  0  0  0
    4.1120    0.6750    1.3777 C   0  0  0  0  0  0  0  0  0  0  0  0
    2.8775    0.9846    0.8009 C   0  0  0  0  0  0  0  0  0  0  0  0
   -2.0594   -1.0387   -1.0065 C   0  0  1  0  0  0  0  0  0  0  0  0
   -1.3215   -2.2266   -1.2841 O   0  0  0  0  0  0  0  0  0  0  0  0
   -2.7163   -1.2234    0.3951 C   0  0  1  0  0  0  0  0  0  0  0  0
   -2.1540   -2.3311    1.0964 O   0  0  0  0  0  0  0  0  0  0  0  0
   -2.3739    0.0505    1.2238 C   0  0  1  0  0  0  0  0  0  0  0  0
   -1.2989   -0.2056    2.1333 O   0  0  0  0  0  0  0  0  0  0  0  0
   -1.8269    1.0814    0.2194 C   0  0  2  0  0  0  0  0  0  0  0  0
   -3.1929    2.0414   -0.4927 S   0  0  0  0  0  0  0  0  0  0  0  0
   -1.2274    0.8041   -1.9065 H   0  0  0  0  0  0  0  0  0  0  0  0
    0.3104   -0.3205    0.3884 H   0  0  0  0  0  0  0  0  0  0  0  0
    1.2796    0.7618   -2.2115 H   0  0  0  0  0  0  0  0  0  0  0  0
    0.9531    1.8911   -0.8732 H   0  0  0  0  0  0  0  0  0  0  0  0
    3.2275   -0.7007   -2.1483 H   0  0  0  0  0  0  0  0  0  0  0  0
    5.4232   -1.2375   -1.1201 H   0  0  0  0  0  0  0  0  0  0  0  0
    5.9922   -0.3609    1.1377 H   0  0  0  0  0  0  0  0  0  0  0  0
    4.3578    1.0547    2.3684 H   0  0  0  0  0  0  0  0  0  0  0  0
    2.1654    1.6018    1.3460 H   0  0  0  0  0  0  0  0  0  0  0  0
   -2.8198   -0.9797   -1.8134 H   0  0  0  0  0  0  0  0  0  0  0  0
   -0.3364   -2.0341   -1.3159 H   0  0  0  0  0  0  0  0  0  0  0  0
   -3.8068   -1.4107    0.3360 H   0  0  0  0  0  0  0  0  0  0  0  0
   -1.5884   -2.8746    0.4584 H   0  0  0  0  0  0  0  0  0  0  0  0
   -3.2246    0.4128    1.8342 H   0  0  0  0  0  0  0  0  0  0  0  0
   -1.2227   -1.1955    2.2948 H   0  0  0  0  0  0  0  0  0  0  0  0
   -1.0848    1.7483    0.7125 H   0  0  0  0  0  0  0  0  0  0  0  0
   -3.4722    2.8472    0.5554 H   0  0  0  0  0  0  0  0  0  0  0  0
  1 18  1  6  0  0  0
  1  2  1  0  0  0  0
  1 16  1  0  0  0  0
  2 19  1  0  0  0  0
  3 21  1  0  0  0  0
  3  2  1  0  0  0  0
  3  4  1  0  0  0  0
  4  9  2  0  0  0  0
  5  6  2  0  0  0  0
  5  4  1  0  0  0  0
  6  7  1  0  0  0  0
  7 24  1  0  0  0  0
  7  8  2  0  0  0  0
  8 25  1  0  0  0  0
  9 26  1  0  0  0  0
  9  8  1  0  0  0  0
 10 27  1  6  0  0  0
 10  1  1  0  0  0  0
 10 12  1  0  0  0  0
 11 10  1  0  0  0  0
 12 29  1  6  0  0  0
 12 13  1  0  0  0  0
 12 14  1  0  0  0  0
 14 31  1  1  0  0  0
 14 15  1  0  0  0  0
 15 32  1  0  0  0  0
 16 33  1  1  0  0  0
 16 14  1  0  0  0  0
 17 16  1  0  0  0  0
 17 34  1  0  0  0  0
 20  3  1  0  0  0  0
 22  5  1  0  0  0  0
 23  6  1  0  0  0  0
 28 11  1  0  0  0  0
 30 13  1  0  0  0  0
M  END
