omegacsd_CEJTIU_10.log
 OpenBabel10161801213D
Gaussian 16 # PM6 Opt
 41 42  0  0  0  0  0  0  0  0999 V2000
   -5.4552   -1.5988   -1.3006 C   0  0  0  0  0  0  0  0  0  0  0  0
   -4.5827   -1.4713   -0.1002 N   0  0  0  0  0  0  0  0  0  0  0  0
   -5.3508   -1.6833    1.1577 C   0  0  0  0  0  0  0  0  0  0  0  0
   -3.6494   -0.3948   -0.1048 C   0  0  0  0  0  0  0  0  0  0  0  0
   -3.1094    0.1007    1.1070 C   0  0  0  0  0  0  0  0  0  0  0  0
   -2.0952    1.0518    1.0958 C   0  0  0  0  0  0  0  0  0  0  0  0
   -1.6102    1.5406   -0.1285 C   0  0  0  0  0  0  0  0  0  0  0  0
   -2.1283    1.0570   -1.3403 C   0  0  0  0  0  0  0  0  0  0  0  0
   -3.1409    0.1032   -1.3293 C   0  0  0  0  0  0  0  0  0  0  0  0
   -0.6044    2.5754   -0.1571 N   0  0  0  0  0  0  0  0  0  0  0  0
    0.7653    2.3838   -0.2817 C   0  0  0  0  0  0  0  0  0  0  0  0
    1.5194    3.3208   -0.4876 O   0  0  0  0  0  0  0  0  0  0  0  0
    1.2983    1.0360   -0.2668 N   0  0  0  0  0  0  0  0  0  0  0  0
    1.0947    0.0865    0.7623 C   0  0  0  0  0  0  0  0  0  0  0  0
    0.4361    0.3365    1.7494 O   0  0  0  0  0  0  0  0  0  0  0  0
    1.7378   -1.2662    0.5126 C   0  0  0  0  0  0  0  0  0  0  0  0
    3.1960   -1.1841    0.1667 C   0  0  0  0  0  0  0  0  0  0  0  0
    4.1113   -0.6995    1.1144 C   0  0  0  0  0  0  0  0  0  0  0  0
    5.4690   -0.6244    0.7962 C   0  0  0  0  0  0  0  0  0  0  0  0
    5.9209   -1.0327   -0.4636 C   0  0  0  0  0  0  0  0  0  0  0  0
    5.0094   -1.5165   -1.4066 C   0  0  0  0  0  0  0  0  0  0  0  0
    3.6481   -1.5919   -1.0963 C   0  0  0  0  0  0  0  0  0  0  0  0
   -4.8296   -1.6828   -2.2069 H   0  0  0  0  0  0  0  0  0  0  0  0
   -6.1520   -0.7565   -1.4334 H   0  0  0  0  0  0  0  0  0  0  0  0
   -6.0410   -2.5302   -1.2305 H   0  0  0  0  0  0  0  0  0  0  0  0
   -5.9494   -2.6051    1.0711 H   0  0  0  0  0  0  0  0  0  0  0  0
   -4.6491   -1.8373    1.9971 H   0  0  0  0  0  0  0  0  0  0  0  0
   -6.0253   -0.8511    1.4126 H   0  0  0  0  0  0  0  0  0  0  0  0
   -3.4658   -0.2732    2.0651 H   0  0  0  0  0  0  0  0  0  0  0  0
   -1.6550    1.4013    2.0346 H   0  0  0  0  0  0  0  0  0  0  0  0
   -1.7401    1.4297   -2.2884 H   0  0  0  0  0  0  0  0  0  0  0  0
   -3.5284   -0.2669   -2.2763 H   0  0  0  0  0  0  0  0  0  0  0  0
   -0.9350    3.5397   -0.0727 H   0  0  0  0  0  0  0  0  0  0  0  0
    2.0869    0.8967   -0.9154 H   0  0  0  0  0  0  0  0  0  0  0  0
    1.6015   -1.8884    1.4299 H   0  0  0  0  0  0  0  0  0  0  0  0
    1.1561   -1.7986   -0.2728 H   0  0  0  0  0  0  0  0  0  0  0  0
    3.7630   -0.3792    2.0960 H   0  0  0  0  0  0  0  0  0  0  0  0
    6.1776   -0.2447    1.5318 H   0  0  0  0  0  0  0  0  0  0  0  0
    6.9797   -0.9722   -0.7086 H   0  0  0  0  0  0  0  0  0  0  0  0
    5.3590   -1.8355   -2.3877 H   0  0  0  0  0  0  0  0  0  0  0  0
    2.9461   -1.9719   -1.8358 H   0  0  0  0  0  0  0  0  0  0  0  0
  1 25  1  0  0  0  0
  1  2  1  0  0  0  0
  2  3  1  0  0  0  0
  3 28  1  0  0  0  0
  3 27  1  0  0  0  0
  4  2  1  0  0  0  0
  4  5  2  0  0  0  0
  5 29  1  0  0  0  0
  6  5  1  0  0  0  0
  6 30  1  0  0  0  0
  7  6  2  0  0  0  0
  8  9  2  0  0  0  0
  8  7  1  0  0  0  0
  9  4  1  0  0  0  0
 10  7  1  0  0  0  0
 10 33  1  0  0  0  0
 11 13  1  0  0  0  0
 11 10  1  0  0  0  0
 12 11  2  0  0  0  0
 13 14  1  0  0  0  0
 14 15  2  0  0  0  0
 16 14  1  0  0  0  0
 16 35  1  0  0  0  0
 17 16  1  0  0  0  0
 17 18  2  0  0  0  0
 18 37  1  0  0  0  0
 19 18  1  0  0  0  0
 19 38  1  0  0  0  0
 20 19  2  0  0  0  0
 21 22  2  0  0  0  0
 21 20  1  0  0  0  0
 22 17  1  0  0  0  0
 23  1  1  0  0  0  0
 24  1  1  0  0  0  0
 26  3  1  0  0  0  0
 31  8  1  0  0  0  0
 32  9  1  0  0  0  0
 34 13  1  0  0  0  0
 36 16  1  0  0  0  0
 39 20  1  0  0  0  0
 40 21  1  0  0  0  0
 41 22  1  0  0  0  0
M  END
