omegapdb_1xom_01.log
 OpenBabel10161801213D
Gaussian 16 # PM6 Opt
 50 52  0  0  1  0  0  0  0  0999 V2000
   -5.6949    2.7773   -0.2644 O   0  0  0  0  0  0  0  0  0  0  0  0
   -5.5463    1.4261   -0.0285 C   0  0  0  0  0  0  0  0  0  0  0  0
   -6.5218    0.7490    0.1833 O   0  0  0  0  0  0  0  0  0  0  0  0
   -4.0764    1.0672   -0.0928 C   0  0  1  0  0  0  0  0  0  0  0  0
   -3.6320    0.5070    1.2704 C   0  0  0  0  0  0  0  0  0  0  0  0
   -2.1589    0.0930    1.2278 C   0  0  0  0  0  0  0  0  0  0  0  0
   -1.8638   -0.9211    0.0886 C   0  0  2  0  0  0  0  0  0  0  0  0
   -2.3859   -0.3886   -1.2742 C   0  0  0  0  0  0  0  0  0  0  0  0
   -3.8563    0.0319   -1.2105 C   0  0  0  0  0  0  0  0  0  0  0  0
   -2.5850   -2.1716    0.3998 C   0  0  0  0  0  0  0  0  0  0  0  0
   -3.1699   -3.1368    0.6443 N   0  0  0  0  0  0  0  0  0  0  0  0
   -0.3584   -1.1662   -0.0115 C   0  0  0  0  0  0  0  0  0  0  0  0
    0.1984   -2.4409    0.0941 C   0  0  0  0  0  0  0  0  0  0  0  0
    1.5850   -2.6289   -0.0120 C   0  0  0  0  0  0  0  0  0  0  0  0
    2.4261   -1.5413   -0.2312 C   0  0  0  0  0  0  0  0  0  0  0  0
    3.8013   -1.6154   -0.3619 O   0  0  0  0  0  0  0  0  0  0  0  0
    4.4192   -2.9155   -0.1985 C   0  0  0  0  0  0  0  0  0  0  0  0
    1.8704   -0.2321   -0.3403 C   0  0  0  0  0  0  0  0  0  0  0  0
    0.4870   -0.0628   -0.2265 C   0  0  0  0  0  0  0  0  0  0  0  0
    2.5293    0.9396   -0.5988 O   0  0  0  0  0  0  0  0  0  0  0  0
    3.9901    1.0173   -0.4611 C   0  0  0  0  0  0  0  0  0  0  0  0
    4.2973    2.4266   -0.9934 C   0  0  0  0  0  0  0  0  0  0  0  0
    4.9937    3.1926    0.1444 C   0  0  0  0  0  0  0  0  0  0  0  0
    5.3327    2.1629    1.2403 C   0  0  0  0  0  0  0  0  0  0  0  0
    4.3946    0.9669    1.0194 C   0  0  0  0  0  0  0  0  0  0  0  0
   -6.6422    3.0749   -0.2352 H   0  0  0  0  0  0  0  0  0  0  0  0
   -3.4861    1.9932   -0.3236 H   0  0  0  0  0  0  0  0  0  0  0  0
   -3.7852    1.2636    2.0647 H   0  0  0  0  0  0  0  0  0  0  0  0
   -4.2695   -0.3595    1.5493 H   0  0  0  0  0  0  0  0  0  0  0  0
   -1.5207    0.9899    1.0955 H   0  0  0  0  0  0  0  0  0  0  0  0
   -1.8595   -0.3444    2.2011 H   0  0  0  0  0  0  0  0  0  0  0  0
   -2.2472   -1.1643   -2.0537 H   0  0  0  0  0  0  0  0  0  0  0  0
   -1.7612    0.4693   -1.5946 H   0  0  0  0  0  0  0  0  0  0  0  0
   -4.5045   -0.8542   -1.0380 H   0  0  0  0  0  0  0  0  0  0  0  0
   -4.1684    0.4498   -2.1876 H   0  0  0  0  0  0  0  0  0  0  0  0
   -0.4246   -3.3202    0.2599 H   0  0  0  0  0  0  0  0  0  0  0  0
    1.9850   -3.6366    0.0739 H   0  0  0  0  0  0  0  0  0  0  0  0
    5.4813   -2.6732   -0.3328 H   0  0  0  0  0  0  0  0  0  0  0  0
    4.0730   -3.6010   -0.9776 H   0  0  0  0  0  0  0  0  0  0  0  0
    4.2284   -3.3065    0.8049 H   0  0  0  0  0  0  0  0  0  0  0  0
    0.0863    0.9481   -0.3118 H   0  0  0  0  0  0  0  0  0  0  0  0
    4.4338    0.2077   -1.0741 H   0  0  0  0  0  0  0  0  0  0  0  0
    4.9271    2.3764   -1.8962 H   0  0  0  0  0  0  0  0  0  0  0  0
    3.3568    2.9270   -1.2997 H   0  0  0  0  0  0  0  0  0  0  0  0
    5.8989    3.7089   -0.2136 H   0  0  0  0  0  0  0  0  0  0  0  0
    4.3256    3.9753    0.5454 H   0  0  0  0  0  0  0  0  0  0  0  0
    6.3881    1.8477    1.1629 H   0  0  0  0  0  0  0  0  0  0  0  0
    5.2091    2.5918    2.2479 H   0  0  0  0  0  0  0  0  0  0  0  0
    4.8697    0.0058    1.2755 H   0  0  0  0  0  0  0  0  0  0  0  0
    3.4939    1.0482    1.6568 H   0  0  0  0  0  0  0  0  0  0  0  0
  1 26  1  0  0  0  0
  1  2  1  0  0  0  0
  2  3  2  0  0  0  0
  4 27  1  6  0  0  0
  4  2  1  0  0  0  0
  4  5  1  0  0  0  0
  5 29  1  0  0  0  0
  5 28  1  0  0  0  0
  6  5  1  0  0  0  0
  6 31  1  0  0  0  0
  7 12  1  6  0  0  0
  7 10  1  0  0  0  0
  7  6  1  0  0  0  0
  8  9  1  0  0  0  0
  8  7  1  0  0  0  0
  9 34  1  0  0  0  0
  9  4  1  0  0  0  0
 10 11  3  0  0  0  0
 12 13  1  0  0  0  0
 13 36  1  0  0  0  0
 14 37  1  0  0  0  0
 14 13  2  0  0  0  0
 15 14  1  0  0  0  0
 16 15  1  0  0  0  0
 16 17  1  0  0  0  0
 17 40  1  0  0  0  0
 18 15  2  0  0  0  0
 18 19  1  0  0  0  0
 19 12  2  0  0  0  0
 20 21  1  0  0  0  0
 20 18  1  0  0  0  0
 21 25  1  0  0  0  0
 22 21  1  0  0  0  0
 22 23  1  0  0  0  0
 23 46  1  0  0  0  0
 23 24  1  0  0  0  0
 24 48  1  0  0  0  0
 25 24  1  0  0  0  0
 25 49  1  0  0  0  0
 25 50  1  0  0  0  0
 30  6  1  0  0  0  0
 32  8  1  0  0  0  0
 33  8  1  0  0  0  0
 35  9  1  0  0  0  0
 38 17  1  0  0  0  0
 39 17  1  0  0  0  0
 41 19  1  0  0  0  0
 42 21  1  0  0  0  0
 43 22  1  0  0  0  0
 44 22  1  0  0  0  0
 45 23  1  0  0  0  0
 47 24  1  0  0  0  0
M  END
