omegapdb_2f7p_03.log
 OpenBabel10161801213D
Gaussian 16 # PM6 Opt
 34 35  0  0  1  0  0  0  0  0999 V2000
   -0.9515    0.1887   -0.6760 C   0  0  1  0  0  0  0  0  0  0  0  0
    0.4017    0.0031   -0.0822 N   0  0  0  0  0  0  0  0  0  0  0  0
    1.4672   -0.1589   -1.1237 C   0  0  0  0  0  0  0  0  0  0  0  0
    2.8173   -0.1052   -0.4509 C   0  0  0  0  0  0  0  0  0  0  0  0
    3.5766    1.0730   -0.4890 C   0  0  0  0  0  0  0  0  0  0  0  0
    4.8281    1.1167    0.1320 C   0  0  0  0  0  0  0  0  0  0  0  0
    5.3239   -0.0104    0.7950 C   0  0  0  0  0  0  0  0  0  0  0  0
    4.5642   -1.1841    0.8383 C   0  0  0  0  0  0  0  0  0  0  0  0
    3.3129   -1.2337    0.2182 C   0  0  0  0  0  0  0  0  0  0  0  0
   -1.5900   -1.2183   -0.9306 C   0  0  1  0  0  0  0  0  0  0  0  0
   -1.0408   -2.2565   -0.1176 O   0  0  0  0  0  0  0  0  0  0  0  0
   -3.0935   -1.1056   -0.5393 C   0  0  1  0  0  0  0  0  0  0  0  0
   -3.4445   -2.0258    0.4888 O   0  0  0  0  0  0  0  0  0  0  0  0
   -3.3127    0.3280    0.0376 C   0  0  1  0  0  0  0  0  0  0  0  0
   -4.0525    0.3071    1.2442 O   0  0  0  0  0  0  0  0  0  0  0  0
   -1.9016    0.8861    0.3131 C   0  0  2  0  0  0  0  0  0  0  0  0
   -1.8282    2.6730    0.0234 S   0  0  0  0  0  0  0  0  0  0  0  0
   -0.9269    0.7379   -1.6543 H   0  0  0  0  0  0  0  0  0  0  0  0
    0.6379    0.7874    0.5414 H   0  0  0  0  0  0  0  0  0  0  0  0
    1.3161   -1.1499   -1.6142 H   0  0  0  0  0  0  0  0  0  0  0  0
    1.4020    0.6014   -1.9347 H   0  0  0  0  0  0  0  0  0  0  0  0
    3.1966    1.9553   -1.0007 H   0  0  0  0  0  0  0  0  0  0  0  0
    5.4175    2.0319    0.0994 H   0  0  0  0  0  0  0  0  0  0  0  0
    6.2989    0.0258    1.2775 H   0  0  0  0  0  0  0  0  0  0  0  0
    4.9477   -2.0617    1.3569 H   0  0  0  0  0  0  0  0  0  0  0  0
    2.7191   -2.1460    0.2584 H   0  0  0  0  0  0  0  0  0  0  0  0
   -1.4484   -1.5652   -1.9734 H   0  0  0  0  0  0  0  0  0  0  0  0
   -0.3147   -1.8901    0.4717 H   0  0  0  0  0  0  0  0  0  0  0  0
   -3.7809   -1.3303   -1.3790 H   0  0  0  0  0  0  0  0  0  0  0  0
   -2.6206   -2.5238    0.7980 H   0  0  0  0  0  0  0  0  0  0  0  0
   -3.9112    0.9671   -0.6481 H   0  0  0  0  0  0  0  0  0  0  0  0
   -4.0418   -0.6157    1.6422 H   0  0  0  0  0  0  0  0  0  0  0  0
   -1.6265    0.6649    1.3740 H   0  0  0  0  0  0  0  0  0  0  0  0
   -2.7695    3.0658    0.9137 H   0  0  0  0  0  0  0  0  0  0  0  0
  1 18  1  6  0  0  0
  1  2  1  0  0  0  0
  1 16  1  0  0  0  0
  2 19  1  0  0  0  0
  3  4  1  0  0  0  0
  3  2  1  0  0  0  0
  4  9  1  0  0  0  0
  5  4  2  0  0  0  0
  5  6  1  0  0  0  0
  6  7  2  0  0  0  0
  7  8  1  0  0  0  0
  7 24  1  0  0  0  0
  8 25  1  0  0  0  0
  9 26  1  0  0  0  0
  9  8  2  0  0  0  0
 10 27  1  6  0  0  0
 10  1  1  0  0  0  0
 10 12  1  0  0  0  0
 10 11  1  0  0  0  0
 11 28  1  0  0  0  0
 12 29  1  6  0  0  0
 12 14  1  0  0  0  0
 12 13  1  0  0  0  0
 13 30  1  0  0  0  0
 14 31  1  6  0  0  0
 14 16  1  0  0  0  0
 14 15  1  0  0  0  0
 15 32  1  0  0  0  0
 16 33  1  1  0  0  0
 17 16  1  0  0  0  0
 17 34  1  0  0  0  0
 20  3  1  0  0  0  0
 21  3  1  0  0  0  0
 22  5  1  0  0  0  0
 23  6  1  0  0  0  0
M  END
