omegapdb_2f7p_00.log
 OpenBabel10161801213D
Gaussian 16 # PM6 Opt
 34 35  0  0  1  0  0  0  0  0999 V2000
    1.1938   -0.2624   -0.9299 C   0  0  1  0  0  0  0  0  0  0  0  0
   -0.2032    0.1495   -0.6278 N   0  0  0  0  0  0  0  0  0  0  0  0
   -1.2262   -0.8357   -1.0999 C   0  0  0  0  0  0  0  0  0  0  0  0
   -2.5585   -0.4970   -0.4751 C   0  0  0  0  0  0  0  0  0  0  0  0
   -3.4763    0.3081   -1.1638 C   0  0  0  0  0  0  0  0  0  0  0  0
   -4.7106    0.6136   -0.5827 C   0  0  0  0  0  0  0  0  0  0  0  0
   -5.0309    0.1222    0.6866 C   0  0  0  0  0  0  0  0  0  0  0  0
   -4.1123   -0.6752    1.3775 C   0  0  0  0  0  0  0  0  0  0  0  0
   -2.8778   -0.9849    0.8009 C   0  0  0  0  0  0  0  0  0  0  0  0
    2.0592    1.0388   -1.0065 C   0  0  1  0  0  0  0  0  0  0  0  0
    1.3212    2.2267   -1.2841 O   0  0  0  0  0  0  0  0  0  0  0  0
    2.7162    1.2235    0.3950 C   0  0  1  0  0  0  0  0  0  0  0  0
    2.1538    2.3311    1.0965 O   0  0  0  0  0  0  0  0  0  0  0  0
    2.3741   -0.0504    1.2237 C   0  0  1  0  0  0  0  0  0  0  0  0
    1.2993    0.2055    2.1334 O   0  0  0  0  0  0  0  0  0  0  0  0
    1.8271   -1.0813    0.2194 C   0  0  2  0  0  0  0  0  0  0  0  0
    3.1930   -2.0413   -0.4929 S   0  0  0  0  0  0  0  0  0  0  0  0
    1.2274   -0.8040   -1.9065 H   0  0  0  0  0  0  0  0  0  0  0  0
   -0.3104    0.3203    0.3885 H   0  0  0  0  0  0  0  0  0  0  0  0
   -0.9530   -1.8914   -0.8726 H   0  0  0  0  0  0  0  0  0  0  0  0
   -1.2795   -0.7624   -2.2112 H   0  0  0  0  0  0  0  0  0  0  0  0
   -3.2271    0.7009   -2.1481 H   0  0  0  0  0  0  0  0  0  0  0  0
   -5.4227    1.2380   -1.1201 H   0  0  0  0  0  0  0  0  0  0  0  0
   -5.9923    0.3612    1.1374 H   0  0  0  0  0  0  0  0  0  0  0  0
   -4.3584   -1.0550    2.3681 H   0  0  0  0  0  0  0  0  0  0  0  0
   -2.1660   -1.6024    1.3460 H   0  0  0  0  0  0  0  0  0  0  0  0
    2.8195    0.9799   -1.8135 H   0  0  0  0  0  0  0  0  0  0  0  0
    0.3360    2.0341   -1.3157 H   0  0  0  0  0  0  0  0  0  0  0  0
    3.8067    1.4111    0.3358 H   0  0  0  0  0  0  0  0  0  0  0  0
    1.5884    2.8748    0.4584 H   0  0  0  0  0  0  0  0  0  0  0  0
    3.2250   -0.4126    1.8339 H   0  0  0  0  0  0  0  0  0  0  0  0
    1.2228    1.1953    2.2948 H   0  0  0  0  0  0  0  0  0  0  0  0
    1.0850   -1.7482    0.7127 H   0  0  0  0  0  0  0  0  0  0  0  0
    3.4723   -2.8472    0.5552 H   0  0  0  0  0  0  0  0  0  0  0  0
  1 18  1  6  0  0  0
  1  2  1  0  0  0  0
  1 16  1  0  0  0  0
  2 19  1  0  0  0  0
  3 20  1  0  0  0  0
  3  2  1  0  0  0  0
  3  4  1  0  0  0  0
  4  9  2  0  0  0  0
  5  6  2  0  0  0  0
  5  4  1  0  0  0  0
  6  7  1  0  0  0  0
  7 24  1  0  0  0  0
  7  8  2  0  0  0  0
  8 25  1  0  0  0  0
  9 26  1  0  0  0  0
  9  8  1  0  0  0  0
 10 27  1  6  0  0  0
 10  1  1  0  0  0  0
 10 12  1  0  0  0  0
 11 10  1  0  0  0  0
 12 29  1  6  0  0  0
 12 13  1  0  0  0  0
 12 14  1  0  0  0  0
 14 31  1  1  0  0  0
 14 15  1  0  0  0  0
 15 32  1  0  0  0  0
 16 33  1  1  0  0  0
 16 14  1  0  0  0  0
 17 16  1  0  0  0  0
 17 34  1  0  0  0  0
 21  3  1  0  0  0  0
 22  5  1  0  0  0  0
 23  6  1  0  0  0  0
 28 11  1  0  0  0  0
 30 13  1  0  0  0  0
M  END
