omegacsd_SPIRIL_04.log
 OpenBabel10161801213D
Gaussian 16 # PM6 Opt
 57 60  0  0  1  0  0  0  0  0999 V2000
    2.4922    0.1481    0.8696 C   0  0  0  0  0  0  0  0  0  0  0  0
    3.1109   -0.7215   -0.2412 C   0  0  2  0  0  0  0  0  0  0  0  0
    2.7669   -2.2151    0.0447 C   0  0  0  0  0  0  0  0  0  0  0  0
    1.6876   -2.7665    0.0225 O   0  0  0  0  0  0  0  0  0  0  0  0
    3.9493   -2.8726    0.3950 N   0  0  0  0  0  0  0  0  0  0  0  0
    5.1468   -2.0055    0.2841 C   0  0  0  0  0  0  0  0  0  0  0  0
    4.6207   -0.7064   -0.2644 N   0  0  0  0  0  0  0  0  0  0  0  0
    5.3497    0.4860    0.0311 C   0  0  0  0  0  0  0  0  0  0  0  0
    4.9381    1.7029   -0.5593 C   0  0  0  0  0  0  0  0  0  0  0  0
    5.6973    2.8554   -0.3806 C   0  0  0  0  0  0  0  0  0  0  0  0
    6.8735    2.8262    0.3793 C   0  0  0  0  0  0  0  0  0  0  0  0
    7.2835    1.6253    0.9607 C   0  0  0  0  0  0  0  0  0  0  0  0
    6.5326    0.4583    0.7982 C   0  0  0  0  0  0  0  0  0  0  0  0
    2.5857   -0.3127   -1.6293 C   0  0  0  0  0  0  0  0  0  0  0  0
    1.0501   -0.2795   -1.6542 C   0  0  0  0  0  0  0  0  0  0  0  0
    0.5602    0.6576   -0.5915 N   0  0  0  0  0  0  0  0  0  0  0  0
   -0.9076    0.9017   -0.6901 C   0  0  0  0  0  0  0  0  0  0  0  0
   -1.8149   -0.3380   -0.5610 C   0  0  0  0  0  0  0  0  0  0  0  0
   -3.2594    0.0486   -0.5290 C   0  0  0  0  0  0  0  0  0  0  0  0
   -4.1826   -0.4993    0.2756 C   0  0  0  0  0  0  0  0  0  0  0  0
   -5.5977   -0.0512    0.2087 C   0  0  0  0  0  0  0  0  0  0  0  0
   -6.1115    0.8004    1.2002 C   0  0  0  0  0  0  0  0  0  0  0  0
   -7.4417    1.2230    1.1506 C   0  0  0  0  0  0  0  0  0  0  0  0
   -8.2330    0.7699    0.0910 C   0  0  0  0  0  0  0  0  0  0  0  0
   -7.7551   -0.0778   -0.9123 C   0  0  0  0  0  0  0  0  0  0  0  0
   -6.4209   -0.4855   -0.8428 C   0  0  0  0  0  0  0  0  0  0  0  0
   -9.5069    1.1667    0.0345 F   0  0  0  0  0  0  0  0  0  0  0  0
   -3.9186   -1.5813    1.2726 C   0  0  0  0  0  0  0  0  0  0  0  0
    0.9578    0.1619    0.7666 C   0  0  0  0  0  0  0  0  0  0  0  0
    2.8662    1.1908    0.7849 H   0  0  0  0  0  0  0  0  0  0  0  0
    2.8026   -0.2070    1.8689 H   0  0  0  0  0  0  0  0  0  0  0  0
    4.0328   -3.8684    0.5381 H   0  0  0  0  0  0  0  0  0  0  0  0
    5.6370   -1.8986    1.2831 H   0  0  0  0  0  0  0  0  0  0  0  0
    5.8855   -2.4139   -0.4476 H   0  0  0  0  0  0  0  0  0  0  0  0
    4.0303    1.7356   -1.1706 H   0  0  0  0  0  0  0  0  0  0  0  0
    5.3730    3.7895   -0.8403 H   0  0  0  0  0  0  0  0  0  0  0  0
    7.4609    3.7304    0.5122 H   0  0  0  0  0  0  0  0  0  0  0  0
    8.1983    1.5933    1.5526 H   0  0  0  0  0  0  0  0  0  0  0  0
    6.8744   -0.4576    1.2722 H   0  0  0  0  0  0  0  0  0  0  0  0
    2.9693   -0.9958   -2.4098 H   0  0  0  0  0  0  0  0  0  0  0  0
    2.9858    0.6974   -1.8821 H   0  0  0  0  0  0  0  0  0  0  0  0
    0.7036    0.0963   -2.6400 H   0  0  0  0  0  0  0  0  0  0  0  0
    0.6519   -1.3147   -1.5348 H   0  0  0  0  0  0  0  0  0  0  0  0
   -1.1754    1.6458    0.0934 H   0  0  0  0  0  0  0  0  0  0  0  0
   -1.0912    1.4061   -1.6650 H   0  0  0  0  0  0  0  0  0  0  0  0
   -1.5357   -0.9217    0.3429 H   0  0  0  0  0  0  0  0  0  0  0  0
   -1.6447   -1.0304   -1.4127 H   0  0  0  0  0  0  0  0  0  0  0  0
   -3.5396    0.8315   -1.2370 H   0  0  0  0  0  0  0  0  0  0  0  0
   -5.4660    1.1365    2.0117 H   0  0  0  0  0  0  0  0  0  0  0  0
   -7.8456    1.8848    1.9146 H   0  0  0  0  0  0  0  0  0  0  0  0
   -8.3986   -0.4118   -1.7242 H   0  0  0  0  0  0  0  0  0  0  0  0
   -6.0152   -1.1461   -1.6093 H   0  0  0  0  0  0  0  0  0  0  0  0
   -4.3378   -2.5379    0.9282 H   0  0  0  0  0  0  0  0  0  0  0  0
   -2.8432   -1.7391    1.4430 H   0  0  0  0  0  0  0  0  0  0  0  0
   -4.3774   -1.3582    2.2452 H   0  0  0  0  0  0  0  0  0  0  0  0
    0.5557   -0.8538    0.9900 H   0  0  0  0  0  0  0  0  0  0  0  0
    0.5430    0.8559    1.5283 H   0  0  0  0  0  0  0  0  0  0  0  0
  1 31  1  0  0  0  0
  2 14  1  6  0  0  0
  2  3  1  0  0  0  0
  2  1  1  0  0  0  0
  3  5  1  0  0  0  0
  4  3  2  0  0  0  0
  5 32  1  0  0  0  0
  6  5  1  0  0  0  0
  6 33  1  0  0  0  0
  7  2  1  0  0  0  0
  7  8  1  0  0  0  0
  7  6  1  0  0  0  0
  8 13  2  0  0  0  0
  9 10  2  0  0  0  0
  9  8  1  0  0  0  0
 10 11  1  0  0  0  0
 11 37  1  0  0  0  0
 11 12  2  0  0  0  0
 12 38  1  0  0  0  0
 13 12  1  0  0  0  0
 13 39  1  0  0  0  0
 15 14  1  0  0  0  0
 15 43  1  0  0  0  0
 15 16  1  0  0  0  0
 16 29  1  0  0  0  0
 17 16  1  0  0  0  0
 17 18  1  0  0  0  0
 17 44  1  0  0  0  0
 18 19  1  0  0  0  0
 18 46  1  0  0  0  0
 19 20  2  0  0  0  0
 20 28  1  0  0  0  0
 21 20  1  0  0  0  0
 21 22  2  0  0  0  0
 22 49  1  0  0  0  0
 23 22  1  0  0  0  0
 23 50  1  0  0  0  0
 24 23  2  0  0  0  0
 25 26  2  0  0  0  0
 25 24  1  0  0  0  0
 26 21  1  0  0  0  0
 27 24  1  0  0  0  0
 28 54  1  0  0  0  0
 28 55  1  0  0  0  0
 29  1  1  0  0  0  0
 29 56  1  0  0  0  0
 29 57  1  0  0  0  0
 30  1  1  0  0  0  0
 34  6  1  0  0  0  0
 35  9  1  0  0  0  0
 36 10  1  0  0  0  0
 40 14  1  0  0  0  0
 41 14  1  0  0  0  0
 42 15  1  0  0  0  0
 45 17  1  0  0  0  0
 47 18  1  0  0  0  0
 48 19  1  0  0  0  0
 51 25  1  0  0  0  0
 52 26  1  0  0  0  0
 53 28  1  0  0  0  0
M  END
