omegacsd_CDBMPI10_06.log
 OpenBabel10161801213D
Gaussian 16 # PM6 Opt
 46 48  0  0  1  0  0  0  0  0999 V2000
    2.0327    1.8912    1.3017 O   0  0  0  0  0  0  0  0  0  0  0  0
    2.1958    1.1009    0.3886 C   0  0  0  0  0  0  0  0  0  0  0  0
    1.1962    0.8540   -0.5877 N   0  0  0  0  0  0  0  0  0  0  0  0
   -0.1571    1.4993   -0.4899 C   0  0  1  0  0  0  0  0  0  0  0  0
   -1.0632    0.6575    0.4513 C   0  0  0  0  0  0  0  0  0  0  0  0
   -1.1565   -0.7287   -0.0681 N   0  0  0  0  0  0  0  0  0  0  0  0
    0.1399   -1.4314   -0.3109 C   0  0  1  0  0  0  0  0  0  0  0  0
    1.0790   -0.5204   -1.1521 C   0  0  0  0  0  0  0  0  0  0  0  0
    0.7794   -1.8507    1.0134 C   0  0  0  0  0  0  0  0  0  0  0  0
   -2.3559   -1.3609   -0.4086 C   0  0  0  0  0  0  0  0  0  0  0  0
   -2.3339   -2.4812   -0.8974 O   0  0  0  0  0  0  0  0  0  0  0  0
   -3.6279   -0.6143   -0.1369 C   0  0  0  0  0  0  0  0  0  0  0  0
   -4.1946   -0.6461    1.1433 C   0  0  0  0  0  0  0  0  0  0  0  0
   -5.4056    0.0118    1.3768 C   0  0  0  0  0  0  0  0  0  0  0  0
   -6.0449    0.6949    0.3366 C   0  0  0  0  0  0  0  0  0  0  0  0
   -5.4771    0.7184   -0.9417 C   0  0  0  0  0  0  0  0  0  0  0  0
   -4.2671    0.0612   -1.1836 C   0  0  0  0  0  0  0  0  0  0  0  0
   -0.0983    2.9537   -0.0424 C   0  0  0  0  0  0  0  0  0  0  0  0
    3.5140    0.4145    0.1681 C   0  0  0  0  0  0  0  0  0  0  0  0
    4.2249    0.6076   -1.0236 C   0  0  0  0  0  0  0  0  0  0  0  0
    5.4731    0.0011   -1.1896 C   0  0  0  0  0  0  0  0  0  0  0  0
    6.0074   -0.7942   -0.1700 C   0  0  0  0  0  0  0  0  0  0  0  0
    5.2982   -0.9784    1.0216 C   0  0  0  0  0  0  0  0  0  0  0  0
    4.0522   -0.3693    1.1967 C   0  0  0  0  0  0  0  0  0  0  0  0
   -0.5817    1.4643   -1.5324 H   0  0  0  0  0  0  0  0  0  0  0  0
   -0.6375    0.6412    1.4810 H   0  0  0  0  0  0  0  0  0  0  0  0
   -2.0679    1.1233    0.5317 H   0  0  0  0  0  0  0  0  0  0  0  0
   -0.0836   -2.3587   -0.9165 H   0  0  0  0  0  0  0  0  0  0  0  0
    0.6838   -0.4318   -2.1899 H   0  0  0  0  0  0  0  0  0  0  0  0
    2.0790   -0.9967   -1.2425 H   0  0  0  0  0  0  0  0  0  0  0  0
    0.1171   -2.5283    1.5690 H   0  0  0  0  0  0  0  0  0  0  0  0
    1.7241   -2.3811    0.8478 H   0  0  0  0  0  0  0  0  0  0  0  0
    0.9871   -0.9968    1.6691 H   0  0  0  0  0  0  0  0  0  0  0  0
   -3.6980   -1.1867    1.9488 H   0  0  0  0  0  0  0  0  0  0  0  0
   -5.8533   -0.0118    2.3695 H   0  0  0  0  0  0  0  0  0  0  0  0
   -6.9892    1.2057    0.5214 H   0  0  0  0  0  0  0  0  0  0  0  0
   -5.9803    1.2439   -1.7521 H   0  0  0  0  0  0  0  0  0  0  0  0
   -3.8292    0.0648   -2.1815 H   0  0  0  0  0  0  0  0  0  0  0  0
    0.6247    3.5266   -0.6382 H   0  0  0  0  0  0  0  0  0  0  0  0
   -1.0730    3.4416   -0.1400 H   0  0  0  0  0  0  0  0  0  0  0  0
    0.2314    3.0560    1.0059 H   0  0  0  0  0  0  0  0  0  0  0  0
    3.8062    1.2321   -1.8136 H   0  0  0  0  0  0  0  0  0  0  0  0
    6.0312    0.1513   -2.1126 H   0  0  0  0  0  0  0  0  0  0  0  0
    6.9801   -1.2668   -0.3023 H   0  0  0  0  0  0  0  0  0  0  0  0
    5.7198   -1.5901    1.8180 H   0  0  0  0  0  0  0  0  0  0  0  0
    3.5066   -0.4911    2.1329 H   0  0  0  0  0  0  0  0  0  0  0  0
  2  1  2  0  0  0  0
  3  4  1  0  0  0  0
  3  2  1  0  0  0  0
  4 25  1  6  0  0  0
  4 18  1  0  0  0  0
  4  5  1  0  0  0  0
  5 27  1  0  0  0  0
  5 26  1  0  0  0  0
  6  5  1  0  0  0  0
  7 28  1  6  0  0  0
  7  6  1  0  0  0  0
  7  9  1  0  0  0  0
  8  3  1  0  0  0  0
  8  7  1  0  0  0  0
  9 31  1  0  0  0  0
  9 33  1  0  0  0  0
 10 12  1  0  0  0  0
 10  6  1  0  0  0  0
 11 10  2  0  0  0  0
 12 13  2  0  0  0  0
 13 14  1  0  0  0  0
 13 34  1  0  0  0  0
 14 35  1  0  0  0  0
 15 36  1  0  0  0  0
 15 14  2  0  0  0  0
 16 15  1  0  0  0  0
 17 16  2  0  0  0  0
 17 12  1  0  0  0  0
 18 41  1  0  0  0  0
 19  2  1  0  0  0  0
 19 24  2  0  0  0  0
 20 19  1  0  0  0  0
 21 20  2  0  0  0  0
 21 22  1  0  0  0  0
 22 23  2  0  0  0  0
 23 24  1  0  0  0  0
 23 45  1  0  0  0  0
 24 46  1  0  0  0  0
 29  8  1  0  0  0  0
 30  8  1  0  0  0  0
 32  9  1  0  0  0  0
 37 16  1  0  0  0  0
 38 17  1  0  0  0  0
 39 18  1  0  0  0  0
 40 18  1  0  0  0  0
 42 20  1  0  0  0  0
 43 21  1  0  0  0  0
 44 22  1  0  0  0  0
M  END
