omegapdb_1xom_09.log
 OpenBabel10161801213D
Gaussian 16 # PM6 Opt
 50 52  0  0  1  0  0  0  0  0999 V2000
   -5.3871    2.9348   -0.0604 O   0  0  0  0  0  0  0  0  0  0  0  0
   -5.0405    1.6029   -0.1553 C   0  0  0  0  0  0  0  0  0  0  0  0
   -5.8200    0.8183   -0.6373 O   0  0  0  0  0  0  0  0  0  0  0  0
   -3.6453    1.4073    0.4041 C   0  0  1  0  0  0  0  0  0  0  0  0
   -3.6697    0.2465    1.4195 C   0  0  0  0  0  0  0  0  0  0  0  0
   -2.3261   -0.4827    1.4612 C   0  0  0  0  0  0  0  0  0  0  0  0
   -2.0035   -1.1651    0.1000 C   0  0  2  0  0  0  0  0  0  0  0  0
   -2.5672   -0.3421   -1.0954 C   0  0  0  0  0  0  0  0  0  0  0  0
   -2.6721    1.1473   -0.7634 C   0  0  0  0  0  0  0  0  0  0  0  0
   -2.6895   -2.4739    0.0794 C   0  0  0  0  0  0  0  0  0  0  0  0
   -3.2479   -3.4845    0.0693 N   0  0  0  0  0  0  0  0  0  0  0  0
   -0.4905   -1.3424   -0.0178 C   0  0  0  0  0  0  0  0  0  0  0  0
    0.1251   -2.5884    0.1067 C   0  0  0  0  0  0  0  0  0  0  0  0
    1.5191   -2.7124    0.0047 C   0  0  0  0  0  0  0  0  0  0  0  0
    2.3094   -1.5886   -0.2222 C   0  0  0  0  0  0  0  0  0  0  0  0
    3.6874   -1.6000   -0.3481 O   0  0  0  0  0  0  0  0  0  0  0  0
    4.3612   -2.8741   -0.2035 C   0  0  0  0  0  0  0  0  0  0  0  0
    1.6942   -0.3074   -0.3408 C   0  0  0  0  0  0  0  0  0  0  0  0
    0.3045   -0.2028   -0.2325 C   0  0  0  0  0  0  0  0  0  0  0  0
    2.2983    0.8939   -0.5997 O   0  0  0  0  0  0  0  0  0  0  0  0
    3.7548    1.0364   -0.4722 C   0  0  0  0  0  0  0  0  0  0  0  0
    4.1700    1.0115    1.0060 C   0  0  0  0  0  0  0  0  0  0  0  0
    5.0558    2.2487    1.2155 C   0  0  0  0  0  0  0  0  0  0  0  0
    4.6655    3.2568    0.1165 C   0  0  0  0  0  0  0  0  0  0  0  0
    3.9974    2.4548   -1.0135 C   0  0  0  0  0  0  0  0  0  0  0  0
   -6.2924    3.1277   -0.4210 H   0  0  0  0  0  0  0  0  0  0  0  0
   -3.3327    2.3499    0.9251 H   0  0  0  0  0  0  0  0  0  0  0  0
   -4.4742   -0.4765    1.1579 H   0  0  0  0  0  0  0  0  0  0  0  0
   -3.9255    0.6319    2.4248 H   0  0  0  0  0  0  0  0  0  0  0  0
   -2.3241   -1.2365    2.2727 H   0  0  0  0  0  0  0  0  0  0  0  0
   -1.5168    0.2285    1.7225 H   0  0  0  0  0  0  0  0  0  0  0  0
   -3.5749   -0.7191   -1.3778 H   0  0  0  0  0  0  0  0  0  0  0  0
   -1.9313   -0.4947   -1.9890 H   0  0  0  0  0  0  0  0  0  0  0  0
   -2.9779    1.7159   -1.6635 H   0  0  0  0  0  0  0  0  0  0  0  0
   -1.6657    1.5416   -0.4925 H   0  0  0  0  0  0  0  0  0  0  0  0
   -0.4576   -3.4928    0.2832 H   0  0  0  0  0  0  0  0  0  0  0  0
    1.9655   -3.6995    0.1002 H   0  0  0  0  0  0  0  0  0  0  0  0
    4.0400   -3.5651   -0.9886 H   0  0  0  0  0  0  0  0  0  0  0  0
    5.4111   -2.5852   -0.3409 H   0  0  0  0  0  0  0  0  0  0  0  0
    4.1933   -3.2842    0.7962 H   0  0  0  0  0  0  0  0  0  0  0  0
   -0.1497    0.7890   -0.3258 H   0  0  0  0  0  0  0  0  0  0  0  0
    4.2301    0.2438   -1.0839 H   0  0  0  0  0  0  0  0  0  0  0  0
    3.2703    1.0559    1.6484 H   0  0  0  0  0  0  0  0  0  0  0  0
    4.6885    0.0734    1.2635 H   0  0  0  0  0  0  0  0  0  0  0  0
    6.1236    1.9798    1.1331 H   0  0  0  0  0  0  0  0  0  0  0  0
    4.9195    2.6770    2.2216 H   0  0  0  0  0  0  0  0  0  0  0  0
    3.9657    4.0113    0.5175 H   0  0  0  0  0  0  0  0  0  0  0  0
    5.5451    3.8106   -0.2493 H   0  0  0  0  0  0  0  0  0  0  0  0
    3.0345    2.9119   -1.3177 H   0  0  0  0  0  0  0  0  0  0  0  0
    4.6244    2.4272   -1.9193 H   0  0  0  0  0  0  0  0  0  0  0  0
  2  1  1  0  0  0  0
  2  4  1  0  0  0  0
  3  2  2  0  0  0  0
  4 27  1  1  0  0  0
  4  5  1  0  0  0  0
  5  6  1  0  0  0  0
  5 29  1  0  0  0  0
  6 31  1  0  0  0  0
  6 30  1  0  0  0  0
  7 12  1  6  0  0  0
  7  6  1  0  0  0  0
  8  9  1  0  0  0  0
  8  7  1  0  0  0  0
  9 35  1  0  0  0  0
  9  4  1  0  0  0  0
 10  7  1  0  0  0  0
 11 10  3  0  0  0  0
 12 13  2  0  0  0  0
 13 36  1  0  0  0  0
 14 37  1  0  0  0  0
 14 13  1  0  0  0  0
 15 14  2  0  0  0  0
 16 15  1  0  0  0  0
 16 17  1  0  0  0  0
 17 40  1  0  0  0  0
 18 19  2  0  0  0  0
 18 15  1  0  0  0  0
 19 12  1  0  0  0  0
 20 21  1  0  0  0  0
 20 18  1  0  0  0  0
 21 22  1  0  0  0  0
 22 23  1  0  0  0  0
 22 44  1  0  0  0  0
 22 43  1  0  0  0  0
 23 46  1  0  0  0  0
 24 47  1  0  0  0  0
 24 23  1  0  0  0  0
 25 21  1  0  0  0  0
 25 24  1  0  0  0  0
 26  1  1  0  0  0  0
 28  5  1  0  0  0  0
 32  8  1  0  0  0  0
 33  8  1  0  0  0  0
 34  9  1  0  0  0  0
 38 17  1  0  0  0  0
 39 17  1  0  0  0  0
 41 19  1  0  0  0  0
 42 21  1  0  0  0  0
 45 23  1  0  0  0  0
 48 24  1  0  0  0  0
 49 25  1  0  0  0  0
 50 25  1  0  0  0  0
M  END
