omegapdb_1gs5_21.log
 OpenBabel10161801213D
Gaussian 16 # PM6 Opt
 24 23  0  0  1  0  0  0  0  0999 V2000
    0.2199    0.1841   -0.3855 C   0  0  2  0  0  0  0  0  0  0  0  0
    0.6322    1.6437   -0.0865 C   0  0  0  0  0  0  0  0  0  0  0  0
    1.7284    2.0747    0.1540 O   0  0  0  0  0  0  0  0  0  0  0  0
   -0.4103    2.5315   -0.0824 O   0  0  0  0  0  0  0  0  0  0  0  0
   -0.4544   -0.4015    0.8779 C   0  0  0  0  0  0  0  0  0  0  0  0
   -1.6708   -1.2655    0.5377 C   0  0  0  0  0  0  0  0  0  0  0  0
   -2.7935   -0.4375   -0.0340 C   0  0  0  0  0  0  0  0  0  0  0  0
   -2.7257    0.6935   -0.4569 O   0  0  0  0  0  0  0  0  0  0  0  0
   -4.0261   -1.0360   -0.1024 O   0  0  0  0  0  0  0  0  0  0  0  0
    1.3324   -0.6303   -0.8772 N   0  0  0  0  0  0  0  0  0  0  0  0
    2.5419   -0.9655   -0.2210 C   0  0  0  0  0  0  0  0  0  0  0  0
    3.3152   -1.6513   -0.8663 O   0  0  0  0  0  0  0  0  0  0  0  0
    2.7822   -0.5000    1.1751 C   0  0  0  0  0  0  0  0  0  0  0  0
   -0.5420    0.2376   -1.2215 H   0  0  0  0  0  0  0  0  0  0  0  0
   -1.3156    2.1459   -0.2849 H   0  0  0  0  0  0  0  0  0  0  0  0
    0.2807   -1.0075    1.4555 H   0  0  0  0  0  0  0  0  0  0  0  0
   -0.7606    0.4155    1.5673 H   0  0  0  0  0  0  0  0  0  0  0  0
   -1.3811   -2.0599   -0.1888 H   0  0  0  0  0  0  0  0  0  0  0  0
   -2.0040   -1.8086    1.4481 H   0  0  0  0  0  0  0  0  0  0  0  0
   -4.0764   -1.9605    0.2349 H   0  0  0  0  0  0  0  0  0  0  0  0
    1.2748   -0.9039   -1.8626 H   0  0  0  0  0  0  0  0  0  0  0  0
    1.9727   -0.7606    1.8684 H   0  0  0  0  0  0  0  0  0  0  0  0
    2.9115    0.6018    1.2067 H   0  0  0  0  0  0  0  0  0  0  0  0
    3.7162   -0.9356    1.5669 H   0  0  0  0  0  0  0  0  0  0  0  0
  1 14  1  6  0  0  0
  1  2  1  0  0  0  0
  1  5  1  0  0  0  0
  2  4  1  0  0  0  0
  2  3  2  0  0  0  0
  5 16  1  0  0  0  0
  5 17  1  0  0  0  0
  6  5  1  0  0  0  0
  6 19  1  0  0  0  0
  7  6  1  0  0  0  0
  8  7  2  0  0  0  0
  9  7  1  0  0  0  0
  9 20  1  0  0  0  0
 10  1  1  0  0  0  0
 10 11  1  0  0  0  0
 11 13  1  0  0  0  0
 12 11  2  0  0  0  0
 13 23  1  0  0  0  0
 13 24  1  0  0  0  0
 13 22  1  0  0  0  0
 15  4  1  0  0  0  0
 18  6  1  0  0  0  0
 21 10  1  0  0  0  0
M  END
