omegacsd_SEYMIS_05.log
 OpenBabel10161801213D
Gaussian 16 # PM6 Opt
 45 47  0  0  0  0  0  0  0  0999 V2000
   -4.4383    2.6496   -0.2287 O   0  0  0  0  0  0  0  0  0  0  0  0
   -4.7446    1.3095   -0.0018 N   0  0  0  0  0  0  0  0  0  0  0  0
   -3.5979    0.6190    0.0824 C   0  0  0  0  0  0  0  0  0  0  0  0
   -2.4756    1.5271   -0.1040 C   0  0  0  0  0  0  0  0  0  0  0  0
   -1.0230    1.2890   -0.0933 C   0  0  0  0  0  0  0  0  0  0  0  0
   -0.2203    2.1578    0.2134 O   0  0  0  0  0  0  0  0  0  0  0  0
   -0.6187    0.0094   -0.5018 N   0  0  0  0  0  0  0  0  0  0  0  0
    0.7368   -0.4022   -0.5422 C   0  0  0  0  0  0  0  0  0  0  0  0
    1.1531   -1.7048   -0.9285 C   0  0  0  0  0  0  0  0  0  0  0  0
    2.5327   -1.7384   -0.8502 N   0  0  0  0  0  0  0  0  0  0  0  0
    3.3506   -2.9100   -1.1734 C   0  0  0  0  0  0  0  0  0  0  0  0
    3.0023   -0.4905   -0.4238 C   0  0  0  0  0  0  0  0  0  0  0  0
    1.8884    0.3543   -0.2279 C   0  0  0  0  0  0  0  0  0  0  0  0
    4.4161   -0.1793   -0.2313 C   0  0  0  0  0  0  0  0  0  0  0  0
    5.3726   -0.9187   -0.3821 O   0  0  0  0  0  0  0  0  0  0  0  0
    4.5680    1.1288    0.1519 O   0  0  0  0  0  0  0  0  0  0  0  0
    5.9286    1.6011    0.4216 C   0  0  0  0  0  0  0  0  0  0  0  0
    6.3704    1.1327    1.7919 C   0  0  0  0  0  0  0  0  0  0  0  0
   -3.0499    2.7759   -0.2785 C   0  0  0  0  0  0  0  0  0  0  0  0
   -2.5189    4.1198   -0.4926 C   0  0  0  0  0  0  0  0  0  0  0  0
   -3.5537   -0.8243    0.3487 C   0  0  0  0  0  0  0  0  0  0  0  0
   -2.7831   -1.3129    1.4167 C   0  0  0  0  0  0  0  0  0  0  0  0
   -2.7468   -2.6854    1.6715 C   0  0  0  0  0  0  0  0  0  0  0  0
   -3.4770   -3.5695    0.8692 C   0  0  0  0  0  0  0  0  0  0  0  0
   -4.2499   -3.0808   -0.1889 C   0  0  0  0  0  0  0  0  0  0  0  0
   -4.2946   -1.7087   -0.4507 C   0  0  0  0  0  0  0  0  0  0  0  0
   -1.3112   -0.6888   -0.7747 H   0  0  0  0  0  0  0  0  0  0  0  0
    0.5523   -2.5401   -1.2327 H   0  0  0  0  0  0  0  0  0  0  0  0
    4.4342   -2.6970   -1.0105 H   0  0  0  0  0  0  0  0  0  0  0  0
    3.2258   -3.2005   -2.2316 H   0  0  0  0  0  0  0  0  0  0  0  0
    3.0818   -3.7698   -0.5350 H   0  0  0  0  0  0  0  0  0  0  0  0
    1.9187    1.3831    0.1008 H   0  0  0  0  0  0  0  0  0  0  0  0
    6.5933    1.2475   -0.3863 H   0  0  0  0  0  0  0  0  0  0  0  0
    5.7753    2.6946    0.3604 H   0  0  0  0  0  0  0  0  0  0  0  0
    7.3095    1.6086    2.0962 H   0  0  0  0  0  0  0  0  0  0  0  0
    6.5290    0.0440    1.8072 H   0  0  0  0  0  0  0  0  0  0  0  0
    5.6152    1.3598    2.5563 H   0  0  0  0  0  0  0  0  0  0  0  0
   -1.4528    4.1685   -0.1718 H   0  0  0  0  0  0  0  0  0  0  0  0
   -2.5455    4.4120   -1.5566 H   0  0  0  0  0  0  0  0  0  0  0  0
   -3.0713    4.8902    0.0698 H   0  0  0  0  0  0  0  0  0  0  0  0
   -2.2190   -0.6215    2.0449 H   0  0  0  0  0  0  0  0  0  0  0  0
   -2.1512   -3.0663    2.5009 H   0  0  0  0  0  0  0  0  0  0  0  0
   -3.4480   -4.6392    1.0734 H   0  0  0  0  0  0  0  0  0  0  0  0
   -4.8254   -3.7688   -0.8072 H   0  0  0  0  0  0  0  0  0  0  0  0
   -4.9095   -1.3229   -1.2651 H   0  0  0  0  0  0  0  0  0  0  0  0
  1  2  1  0  0  0  0
  2  3  2  0  0  0  0
  3 21  1  0  0  0  0
  4  5  1  0  0  0  0
  4  3  1  0  0  0  0
  5  6  2  0  0  0  0
  7  5  1  0  0  0  0
  8  7  1  0  0  0  0
  8 13  1  0  0  0  0
  9 10  1  0  0  0  0
  9  8  2  0  0  0  0
 10 12  1  0  0  0  0
 11 29  1  0  0  0  0
 11 10  1  0  0  0  0
 11 31  1  0  0  0  0
 12 14  1  0  0  0  0
 12 13  2  0  0  0  0
 13 32  1  0  0  0  0
 14 16  1  0  0  0  0
 15 14  2  0  0  0  0
 16 17  1  0  0  0  0
 17 18  1  0  0  0  0
 18 36  1  0  0  0  0
 18 35  1  0  0  0  0
 18 37  1  0  0  0  0
 19  1  1  0  0  0  0
 19  4  2  0  0  0  0
 20 19  1  0  0  0  0
 20 38  1  0  0  0  0
 20 40  1  0  0  0  0
 21 22  2  0  0  0  0
 22 23  1  0  0  0  0
 22 41  1  0  0  0  0
 23 42  1  0  0  0  0
 24 43  1  0  0  0  0
 24 23  2  0  0  0  0
 25 24  1  0  0  0  0
 26 25  2  0  0  0  0
 26 21  1  0  0  0  0
 27  7  1  0  0  0  0
 28  9  1  0  0  0  0
 30 11  1  0  0  0  0
 33 17  1  0  0  0  0
 34 17  1  0  0  0  0
 39 20  1  0  0  0  0
 44 25  1  0  0  0  0
 45 26  1  0  0  0  0
M  END
