omegapdb_2byh_13.log
 OpenBabel10161801213D
Gaussian 16 # PM6 Opt
 40 42  0  0  0  0  0  0  0  0999 V2000
   -6.5441   -2.3941   -0.1679 O   0  0  0  0  0  0  0  0  0  0  0  0
   -6.4379   -1.2715    0.2841 C   0  0  0  0  0  0  0  0  0  0  0  0
   -7.6084   -0.5953    0.9435 C   0  0  0  0  0  0  0  0  0  0  0  0
   -5.1506   -0.5253    0.2025 C   0  0  0  0  0  0  0  0  0  0  0  0
   -4.0603   -1.1615   -0.4204 C   0  0  0  0  0  0  0  0  0  0  0  0
   -2.8271   -0.5269   -0.5338 C   0  0  0  0  0  0  0  0  0  0  0  0
   -2.6708    0.7715   -0.0169 C   0  0  0  0  0  0  0  0  0  0  0  0
   -3.7573    1.4223    0.6126 C   0  0  0  0  0  0  0  0  0  0  0  0
   -4.9825    0.7693    0.7154 C   0  0  0  0  0  0  0  0  0  0  0  0
   -1.4410    1.4900   -0.0981 N   0  0  0  0  0  0  0  0  0  0  0  0
   -0.2348    1.0218   -0.6769 C   0  0  0  0  0  0  0  0  0  0  0  0
   -0.1245   -0.0939   -1.1468 O   0  0  0  0  0  0  0  0  0  0  0  0
    0.8506    2.0131   -0.6492 C   0  0  0  0  0  0  0  0  0  0  0  0
    0.7817    3.3997   -1.0215 C   0  0  0  0  0  0  0  0  0  0  0  0
    2.0114    3.9629   -0.9422 N   0  0  0  0  0  0  0  0  0  0  0  0
    2.8644    2.9773   -0.5300 N   0  0  0  0  0  0  0  0  0  0  0  0
    2.1981    1.7584   -0.3389 C   0  0  0  0  0  0  0  0  0  0  0  0
    2.8780    0.5521    0.0897 C   0  0  0  0  0  0  0  0  0  0  0  0
    2.7386   -0.6219   -0.6869 C   0  0  0  0  0  0  0  0  0  0  0  0
    3.4296   -1.7746   -0.3453 C   0  0  0  0  0  0  0  0  0  0  0  0
    3.2903   -3.1919   -1.2829 Cl  0  0  0  0  0  0  0  0  0  0  0  0
    4.2626   -1.7887    0.8029 C   0  0  0  0  0  0  0  0  0  0  0  0
    4.9062   -2.9587    1.0466 O   0  0  0  0  0  0  0  0  0  0  0  0
    4.3882   -0.6603    1.6172 C   0  0  0  0  0  0  0  0  0  0  0  0
    3.6751    0.4918    1.2541 C   0  0  0  0  0  0  0  0  0  0  0  0
    3.8361    1.5443    2.1120 O   0  0  0  0  0  0  0  0  0  0  0  0
   -7.8922    0.3292    0.4260 H   0  0  0  0  0  0  0  0  0  0  0  0
   -7.4025   -0.3504    1.9925 H   0  0  0  0  0  0  0  0  0  0  0  0
   -8.4905   -1.2552    0.9330 H   0  0  0  0  0  0  0  0  0  0  0  0
   -4.1956   -2.1743   -0.8193 H   0  0  0  0  0  0  0  0  0  0  0  0
   -1.9878   -1.0381   -1.0202 H   0  0  0  0  0  0  0  0  0  0  0  0
   -3.6470    2.4249    1.0165 H   0  0  0  0  0  0  0  0  0  0  0  0
   -5.8135    1.2814    1.2029 H   0  0  0  0  0  0  0  0  0  0  0  0
   -1.4405    2.4233    0.3227 H   0  0  0  0  0  0  0  0  0  0  0  0
   -0.0922    3.9475   -1.3417 H   0  0  0  0  0  0  0  0  0  0  0  0
    3.8591    3.1592   -0.4577 H   0  0  0  0  0  0  0  0  0  0  0  0
    2.0640   -0.6148   -1.5580 H   0  0  0  0  0  0  0  0  0  0  0  0
    5.4673   -2.9206    1.8693 H   0  0  0  0  0  0  0  0  0  0  0  0
    4.9991   -0.6515    2.5159 H   0  0  0  0  0  0  0  0  0  0  0  0
    3.1677    2.2652    1.9765 H   0  0  0  0  0  0  0  0  0  0  0  0
  1  2  2  0  0  0  0
  2  3  1  0  0  0  0
  3 28  1  0  0  0  0
  4  2  1  0  0  0  0
  4  9  2  0  0  0  0
  5  4  1  0  0  0  0
  6  5  2  0  0  0  0
  6  7  1  0  0  0  0
  7  8  2  0  0  0  0
  8  9  1  0  0  0  0
  8 32  1  0  0  0  0
  9 33  1  0  0  0  0
 10  7  1  0  0  0  0
 10 34  1  0  0  0  0
 11 13  1  0  0  0  0
 11 10  1  0  0  0  0
 12 11  2  0  0  0  0
 13 17  2  0  0  0  0
 14 15  2  0  0  0  0
 14 13  1  0  0  0  0
 15 16  1  0  0  0  0
 16 36  1  0  0  0  0
 16 17  1  0  0  0  0
 17 18  1  0  0  0  0
 18 25  2  0  0  0  0
 19 20  2  0  0  0  0
 19 18  1  0  0  0  0
 20 22  1  0  0  0  0
 21 20  1  0  0  0  0
 22 23  1  0  0  0  0
 22 24  2  0  0  0  0
 23 38  1  0  0  0  0
 24 39  1  0  0  0  0
 25 24  1  0  0  0  0
 25 26  1  0  0  0  0
 27  3  1  0  0  0  0
 29  3  1  0  0  0  0
 30  5  1  0  0  0  0
 31  6  1  0  0  0  0
 35 14  1  0  0  0  0
 37 19  1  0  0  0  0
 40 26  1  0  0  0  0
M  END
