omegacsd_SPIRIL_16.log
 OpenBabel10161801213D
Gaussian 16 # PM6 Opt
 57 60  0  0  1  0  0  0  0  0999 V2000
    2.1287   -0.2754    1.4016 C   0  0  0  0  0  0  0  0  0  0  0  0
    2.9434   -0.7479    0.1834 C   0  0  2  0  0  0  0  0  0  0  0  0
    3.0340   -2.3078    0.1936 C   0  0  0  0  0  0  0  0  0  0  0  0
    2.1388   -3.1182    0.2911 O   0  0  0  0  0  0  0  0  0  0  0  0
    4.3756   -2.6654    0.0336 N   0  0  0  0  0  0  0  0  0  0  0  0
    5.2866   -1.4947    0.0404 C   0  0  0  0  0  0  0  0  0  0  0  0
    4.3834   -0.3281    0.3389 N   0  0  0  0  0  0  0  0  0  0  0  0
    4.8496    0.9786    0.0288 C   0  0  0  0  0  0  0  0  0  0  0  0
    6.2157    1.1935   -0.2664 C   0  0  0  0  0  0  0  0  0  0  0  0
    6.6916    2.4925   -0.4522 C   0  0  0  0  0  0  0  0  0  0  0  0
    5.8352    3.5916   -0.3567 C   0  0  0  0  0  0  0  0  0  0  0  0
    4.4834    3.3804   -0.0658 C   0  0  0  0  0  0  0  0  0  0  0  0
    3.9853    2.0932    0.1246 C   0  0  0  0  0  0  0  0  0  0  0  0
    2.3291   -0.3250   -1.1640 C   0  0  0  0  0  0  0  0  0  0  0  0
    0.8287   -0.6561   -1.2516 C   0  0  0  0  0  0  0  0  0  0  0  0
    0.0268   -0.3117   -0.0323 N   0  0  0  0  0  0  0  0  0  0  0  0
   -0.6151   -1.5271    0.5731 C   0  0  0  0  0  0  0  0  0  0  0  0
   -1.8468   -1.9459   -0.2514 C   0  0  0  0  0  0  0  0  0  0  0  0
   -2.9575   -0.9466   -0.1663 C   0  0  0  0  0  0  0  0  0  0  0  0
   -4.2644   -1.2491   -0.1283 C   0  0  0  0  0  0  0  0  0  0  0  0
   -5.2837   -0.1727   -0.0660 C   0  0  0  0  0  0  0  0  0  0  0  0
   -6.2323   -0.0384   -1.0940 C   0  0  0  0  0  0  0  0  0  0  0  0
   -7.1970    0.9701   -1.0433 C   0  0  0  0  0  0  0  0  0  0  0  0
   -7.1864    1.8307    0.0580 C   0  0  0  0  0  0  0  0  0  0  0  0
   -6.2603    1.7279    1.0994 C   0  0  0  0  0  0  0  0  0  0  0  0
   -5.3034    0.7131    1.0248 C   0  0  0  0  0  0  0  0  0  0  0  0
   -8.1062    2.7978    0.1179 F   0  0  0  0  0  0  0  0  0  0  0  0
   -4.8125   -2.6417   -0.1530 C   0  0  0  0  0  0  0  0  0  0  0  0
    0.8336    0.4364    0.9703 C   0  0  0  0  0  0  0  0  0  0  0  0
    1.8800   -1.1397    2.0506 H   0  0  0  0  0  0  0  0  0  0  0  0
    2.7361    0.3935    2.0446 H   0  0  0  0  0  0  0  0  0  0  0  0
    4.7318   -3.6067    0.1188 H   0  0  0  0  0  0  0  0  0  0  0  0
    6.0492   -1.5723    0.8525 H   0  0  0  0  0  0  0  0  0  0  0  0
    5.7985   -1.4041   -0.9487 H   0  0  0  0  0  0  0  0  0  0  0  0
    6.9167    0.3694   -0.3427 H   0  0  0  0  0  0  0  0  0  0  0  0
    7.7477    2.6467   -0.6760 H   0  0  0  0  0  0  0  0  0  0  0  0
    6.2139    4.5988   -0.5047 H   0  0  0  0  0  0  0  0  0  0  0  0
    3.8079    4.2329    0.0137 H   0  0  0  0  0  0  0  0  0  0  0  0
    2.9286    1.9624    0.3551 H   0  0  0  0  0  0  0  0  0  0  0  0
    2.8658   -0.8095   -2.0022 H   0  0  0  0  0  0  0  0  0  0  0  0
    2.4738    0.7637   -1.3223 H   0  0  0  0  0  0  0  0  0  0  0  0
    0.7086   -1.7311   -1.5157 H   0  0  0  0  0  0  0  0  0  0  0  0
    0.3763   -0.0692   -2.0838 H   0  0  0  0  0  0  0  0  0  0  0  0
   -0.9362   -1.2879    1.6092 H   0  0  0  0  0  0  0  0  0  0  0  0
    0.0919   -2.3886    0.6489 H   0  0  0  0  0  0  0  0  0  0  0  0
   -1.5698   -2.0773   -1.3196 H   0  0  0  0  0  0  0  0  0  0  0  0
   -2.1781   -2.9482    0.0947 H   0  0  0  0  0  0  0  0  0  0  0  0
   -2.6190    0.0946   -0.1577 H   0  0  0  0  0  0  0  0  0  0  0  0
   -6.2118   -0.7245   -1.9405 H   0  0  0  0  0  0  0  0  0  0  0  0
   -7.9312    1.0797   -1.8389 H   0  0  0  0  0  0  0  0  0  0  0  0
   -6.2796    2.4148    1.9431 H   0  0  0  0  0  0  0  0  0  0  0  0
   -4.5656    0.6050    1.8201 H   0  0  0  0  0  0  0  0  0  0  0  0
   -5.0462   -2.9534   -1.1801 H   0  0  0  0  0  0  0  0  0  0  0  0
   -4.0979   -3.3706    0.2555 H   0  0  0  0  0  0  0  0  0  0  0  0
   -5.7358   -2.7266    0.4356 H   0  0  0  0  0  0  0  0  0  0  0  0
    1.0747    1.4306    0.5264 H   0  0  0  0  0  0  0  0  0  0  0  0
    0.1997    0.6424    1.8593 H   0  0  0  0  0  0  0  0  0  0  0  0
  1 31  1  0  0  0  0
  1 30  1  0  0  0  0
  2 14  1  6  0  0  0
  2  3  1  0  0  0  0
  2  7  1  0  0  0  0
  2  1  1  0  0  0  0
  3  4  2  0  0  0  0
  5  6  1  0  0  0  0
  5 32  1  0  0  0  0
  5  3  1  0  0  0  0
  6  7  1  0  0  0  0
  6 33  1  0  0  0  0
  8 13  1  0  0  0  0
  8  7  1  0  0  0  0
  9  8  2  0  0  0  0
 10 11  2  0  0  0  0
 10  9  1  0  0  0  0
 11 12  1  0  0  0  0
 12 38  1  0  0  0  0
 12 13  2  0  0  0  0
 13 39  1  0  0  0  0
 15 14  1  0  0  0  0
 15 16  1  0  0  0  0
 16 17  1  0  0  0  0
 16 29  1  0  0  0  0
 17 45  1  0  0  0  0
 17 44  1  0  0  0  0
 18 19  1  0  0  0  0
 18 47  1  0  0  0  0
 18 17  1  0  0  0  0
 19 48  1  0  0  0  0
 19 20  2  0  0  0  0
 20 21  1  0  0  0  0
 21 26  2  0  0  0  0
 22 23  2  0  0  0  0
 22 21  1  0  0  0  0
 23 24  1  0  0  0  0
 24 27  1  0  0  0  0
 24 25  2  0  0  0  0
 25 51  1  0  0  0  0
 26 25  1  0  0  0  0
 26 52  1  0  0  0  0
 28 20  1  0  0  0  0
 28 54  1  0  0  0  0
 28 55  1  0  0  0  0
 29  1  1  0  0  0  0
 29 57  1  0  0  0  0
 34  6  1  0  0  0  0
 35  9  1  0  0  0  0
 36 10  1  0  0  0  0
 37 11  1  0  0  0  0
 40 14  1  0  0  0  0
 41 14  1  0  0  0  0
 42 15  1  0  0  0  0
 43 15  1  0  0  0  0
 46 18  1  0  0  0  0
 49 22  1  0  0  0  0
 50 23  1  0  0  0  0
 53 28  1  0  0  0  0
 56 29  1  0  0  0  0
M  END
