omegapdb_2byh_12.log
 OpenBabel10161801213D
Gaussian 16 # PM6 Opt
 40 42  0  0  0  0  0  0  0  0999 V2000
   -6.6270   -2.1671    0.8682 O   0  0  0  0  0  0  0  0  0  0  0  0
   -6.5448   -1.1220    0.2539 C   0  0  0  0  0  0  0  0  0  0  0  0
   -7.7640   -0.5060   -0.3767 C   0  0  0  0  0  0  0  0  0  0  0  0
   -5.2431   -0.4149    0.1020 C   0  0  0  0  0  0  0  0  0  0  0  0
   -4.1047   -0.9980    0.6904 C   0  0  0  0  0  0  0  0  0  0  0  0
   -2.8550   -0.3954    0.5901 C   0  0  0  0  0  0  0  0  0  0  0  0
   -2.7282    0.8179   -0.1106 C   0  0  0  0  0  0  0  0  0  0  0  0
   -3.8644    1.4146   -0.7070 C   0  0  0  0  0  0  0  0  0  0  0  0
   -5.1053    0.7945   -0.5952 C   0  0  0  0  0  0  0  0  0  0  0  0
   -1.4866    1.5024   -0.2539 N   0  0  0  0  0  0  0  0  0  0  0  0
   -0.2254    1.0659    0.2378 C   0  0  0  0  0  0  0  0  0  0  0  0
   -0.1004   -0.0196    0.7751 O   0  0  0  0  0  0  0  0  0  0  0  0
    0.8669    2.0147    0.0115 C   0  0  0  0  0  0  0  0  0  0  0  0
    0.7485    3.4460   -0.0880 C   0  0  0  0  0  0  0  0  0  0  0  0
    1.9709    4.0086   -0.2322 N   0  0  0  0  0  0  0  0  0  0  0  0
    2.8688    2.9807   -0.2353 N   0  0  0  0  0  0  0  0  0  0  0  0
    2.2512    1.7355   -0.0725 C   0  0  0  0  0  0  0  0  0  0  0  0
    3.0142    0.4982   -0.0387 C   0  0  0  0  0  0  0  0  0  0  0  0
    2.4128   -0.7307   -0.3904 C   0  0  0  0  0  0  0  0  0  0  0  0
    3.1317   -1.9190   -0.3445 C   0  0  0  0  0  0  0  0  0  0  0  0
    2.4054   -3.3970   -0.7857 Cl  0  0  0  0  0  0  0  0  0  0  0  0
    4.4804   -1.9172    0.0822 C   0  0  0  0  0  0  0  0  0  0  0  0
    5.0932   -3.1279    0.1067 O   0  0  0  0  0  0  0  0  0  0  0  0
    5.1176   -0.7231    0.4403 C   0  0  0  0  0  0  0  0  0  0  0  0
    4.3702    0.4597    0.3649 C   0  0  0  0  0  0  0  0  0  0  0  0
    4.9493    1.6666    0.6672 O   0  0  0  0  0  0  0  0  0  0  0  0
   -7.9778    0.4889    0.0324 H   0  0  0  0  0  0  0  0  0  0  0  0
   -7.6594   -0.4129   -1.4644 H   0  0  0  0  0  0  0  0  0  0  0  0
   -8.6518   -1.1305   -0.1892 H   0  0  0  0  0  0  0  0  0  0  0  0
   -4.2162   -1.9438    1.2345 H   0  0  0  0  0  0  0  0  0  0  0  0
   -1.9787   -0.8648    1.0529 H   0  0  0  0  0  0  0  0  0  0  0  0
   -3.7785    2.3506   -1.2520 H   0  0  0  0  0  0  0  0  0  0  0  0
   -5.9733    1.2648   -1.0598 H   0  0  0  0  0  0  0  0  0  0  0  0
   -1.5241    2.3819   -0.7756 H   0  0  0  0  0  0  0  0  0  0  0  0
   -0.1553    4.0333   -0.0372 H   0  0  0  0  0  0  0  0  0  0  0  0
    3.8671    3.1708   -0.2882 H   0  0  0  0  0  0  0  0  0  0  0  0
    1.3569   -0.7559   -0.6956 H   0  0  0  0  0  0  0  0  0  0  0  0
    6.0341   -3.0749    0.4267 H   0  0  0  0  0  0  0  0  0  0  0  0
    6.1506   -0.7136    0.7655 H   0  0  0  0  0  0  0  0  0  0  0  0
    5.8712    1.5718    1.0212 H   0  0  0  0  0  0  0  0  0  0  0  0
  2  1  2  0  0  0  0
  3 29  1  0  0  0  0
  3 27  1  0  0  0  0
  3  2  1  0  0  0  0
  4  2  1  0  0  0  0
  4  5  2  0  0  0  0
  5 30  1  0  0  0  0
  6  5  1  0  0  0  0
  6 31  1  0  0  0  0
  7  6  2  0  0  0  0
  8  9  2  0  0  0  0
  8  7  1  0  0  0  0
  9  4  1  0  0  0  0
 10  7  1  0  0  0  0
 10 11  1  0  0  0  0
 11 12  2  0  0  0  0
 13 11  1  0  0  0  0
 14 35  1  0  0  0  0
 14 13  1  0  0  0  0
 15 14  2  0  0  0  0
 16 15  1  0  0  0  0
 16 17  1  0  0  0  0
 17 18  1  0  0  0  0
 17 13  2  0  0  0  0
 18 25  2  0  0  0  0
 19 20  2  0  0  0  0
 19 18  1  0  0  0  0
 20 22  1  0  0  0  0
 21 20  1  0  0  0  0
 22 23  1  0  0  0  0
 22 24  2  0  0  0  0
 23 38  1  0  0  0  0
 24 39  1  0  0  0  0
 25 24  1  0  0  0  0
 25 26  1  0  0  0  0
 26 40  1  0  0  0  0
 28  3  1  0  0  0  0
 32  8  1  0  0  0  0
 33  9  1  0  0  0  0
 34 10  1  0  0  0  0
 36 16  1  0  0  0  0
 37 19  1  0  0  0  0
M  END
