omegapdb_2byh_06.log
 OpenBabel10161801213D
Gaussian 16 # PM6 Opt
 40 42  0  0  0  0  0  0  0  0999 V2000
   -6.6412   -2.2445   -0.2371 O   0  0  0  0  0  0  0  0  0  0  0  0
   -6.4934   -1.1527    0.2752 C   0  0  0  0  0  0  0  0  0  0  0  0
   -7.6339   -0.4801    0.9893 C   0  0  0  0  0  0  0  0  0  0  0  0
   -5.1860   -0.4418    0.2151 C   0  0  0  0  0  0  0  0  0  0  0  0
   -4.1308   -1.0630   -0.4797 C   0  0  0  0  0  0  0  0  0  0  0  0
   -2.8812   -0.4595   -0.5778 C   0  0  0  0  0  0  0  0  0  0  0  0
   -2.6704    0.7922    0.0285 C   0  0  0  0  0  0  0  0  0  0  0  0
   -3.7217    1.4269    0.7310 C   0  0  0  0  0  0  0  0  0  0  0  0
   -4.9644    0.8059    0.8167 C   0  0  0  0  0  0  0  0  0  0  0  0
   -1.4226    1.4782   -0.0321 N   0  0  0  0  0  0  0  0  0  0  0  0
   -0.2370    1.0137   -0.6589 C   0  0  0  0  0  0  0  0  0  0  0  0
   -0.1757   -0.0857   -1.1799 O   0  0  0  0  0  0  0  0  0  0  0  0
    0.8648    1.9789   -0.6027 C   0  0  0  0  0  0  0  0  0  0  0  0
    0.7645    3.3910   -0.8577 C   0  0  0  0  0  0  0  0  0  0  0  0
    1.9791    3.9760   -0.7234 N   0  0  0  0  0  0  0  0  0  0  0  0
    2.8535    2.9788   -0.4026 N   0  0  0  0  0  0  0  0  0  0  0  0
    2.2251    1.7314   -0.3204 C   0  0  0  0  0  0  0  0  0  0  0  0
    2.9537    0.5164    0.0004 C   0  0  0  0  0  0  0  0  0  0  0  0
    2.5759   -0.7173   -0.5640 C   0  0  0  0  0  0  0  0  0  0  0  0
    3.2584   -1.8842   -0.2352 C   0  0  0  0  0  0  0  0  0  0  0  0
    2.7958   -3.3788   -0.9255 Cl  0  0  0  0  0  0  0  0  0  0  0  0
    4.3400   -1.8524    0.6743 C   0  0  0  0  0  0  0  0  0  0  0  0
    5.0410   -2.9497    1.0494 O   0  0  0  0  0  0  0  0  0  0  0  0
    4.7558   -0.6396    1.2417 C   0  0  0  0  0  0  0  0  0  0  0  0
    4.0623    0.5197    0.8852 C   0  0  0  0  0  0  0  0  0  0  0  0
    4.4422    1.7452    1.3682 O   0  0  0  0  0  0  0  0  0  0  0  0
   -7.4093   -0.3093    2.0491 H   0  0  0  0  0  0  0  0  0  0  0  0
   -7.8898    0.4846    0.5346 H   0  0  0  0  0  0  0  0  0  0  0  0
   -8.5382   -1.1076    0.9478 H   0  0  0  0  0  0  0  0  0  0  0  0
   -4.3077   -2.0391   -0.9473 H   0  0  0  0  0  0  0  0  0  0  0  0
   -2.0699   -0.9580   -1.1209 H   0  0  0  0  0  0  0  0  0  0  0  0
   -3.5694    2.3929    1.2048 H   0  0  0  0  0  0  0  0  0  0  0  0
   -5.7669    1.3055    1.3614 H   0  0  0  0  0  0  0  0  0  0  0  0
   -1.3848    2.3809    0.4514 H   0  0  0  0  0  0  0  0  0  0  0  0
   -0.1204    3.9406   -1.1398 H   0  0  0  0  0  0  0  0  0  0  0  0
    3.8256    3.1887   -0.1952 H   0  0  0  0  0  0  0  0  0  0  0  0
    1.7255   -0.7599   -1.2712 H   0  0  0  0  0  0  0  0  0  0  0  0
    4.7130   -3.7967    0.6285 H   0  0  0  0  0  0  0  0  0  0  0  0
    5.5950   -0.6309    1.9325 H   0  0  0  0  0  0  0  0  0  0  0  0
    5.1780    1.6805    2.0336 H   0  0  0  0  0  0  0  0  0  0  0  0
  1  2  2  0  0  0  0
  2  3  1  0  0  0  0
  3 27  1  0  0  0  0
  4  2  1  0  0  0  0
  4  9  2  0  0  0  0
  5  4  1  0  0  0  0
  6  5  2  0  0  0  0
  6  7  1  0  0  0  0
  7  8  2  0  0  0  0
  8  9  1  0  0  0  0
  8 32  1  0  0  0  0
  9 33  1  0  0  0  0
 10  7  1  0  0  0  0
 10 34  1  0  0  0  0
 11 13  1  0  0  0  0
 11 10  1  0  0  0  0
 12 11  2  0  0  0  0
 13 17  2  0  0  0  0
 14 15  2  0  0  0  0
 14 13  1  0  0  0  0
 15 16  1  0  0  0  0
 16 17  1  0  0  0  0
 16 36  1  0  0  0  0
 17 18  1  0  0  0  0
 18 25  2  0  0  0  0
 19 20  2  0  0  0  0
 19 18  1  0  0  0  0
 20 22  1  0  0  0  0
 21 20  1  0  0  0  0
 22 23  1  0  0  0  0
 22 24  2  0  0  0  0
 24 39  1  0  0  0  0
 25 24  1  0  0  0  0
 25 26  1  0  0  0  0
 26 40  1  0  0  0  0
 28  3  1  0  0  0  0
 29  3  1  0  0  0  0
 30  5  1  0  0  0  0
 31  6  1  0  0  0  0
 35 14  1  0  0  0  0
 37 19  1  0  0  0  0
 38 23  1  0  0  0  0
M  END
