omegacsd_FIBREN_17.log
 OpenBabel10161801213D
Gaussian 16 # PM6 Opt
 39 41  0  0  1  0  0  0  0  0999 V2000
   -3.0450    1.3680    1.3521 N   0  0  0  0  0  0  0  0  0  0  0  0
   -1.7174    1.7376    1.4308 C   0  0  0  0  0  0  0  0  0  0  0  0
   -0.6902    1.2359    0.6705 N   0  0  0  0  0  0  0  0  0  0  0  0
   -0.9455    0.2743   -0.2908 C   0  0  0  0  0  0  0  0  0  0  0  0
   -2.2877   -0.1761   -0.4351 C   0  0  0  0  0  0  0  0  0  0  0  0
   -3.2755    0.4193    0.4172 C   0  0  0  0  0  0  0  0  0  0  0  0
   -4.4968   -0.1450    0.1261 O   0  0  0  0  0  0  0  0  0  0  0  0
   -4.1934   -1.1019   -0.9333 C   0  0  0  0  0  0  0  0  0  0  0  0
   -2.9206   -1.1281   -1.2649 N   0  0  0  0  0  0  0  0  0  0  0  0
   -5.3748   -1.8295   -1.4006 C   0  0  0  0  0  0  0  0  0  0  0  0
    0.0359   -0.1883   -1.1425 N   0  0  0  0  0  0  0  0  0  0  0  0
    1.5064    0.0195   -0.9991 C   0  0  1  0  0  0  0  0  0  0  0  0
    1.8575    1.4729   -0.6416 C   0  0  0  0  0  0  0  0  0  0  0  0
    3.2520    1.8347   -1.0741 C   0  0  0  0  0  0  0  0  0  0  0  0
    4.2138    2.0425   -0.3870 O   0  0  0  0  0  0  0  0  0  0  0  0
    3.4394    1.9533   -2.4433 O   0  0  0  0  0  0  0  0  0  0  0  0
    2.1009   -0.9754   -0.0155 C   0  0  0  0  0  0  0  0  0  0  0  0
    1.8037   -0.9176    1.3520 C   0  0  0  0  0  0  0  0  0  0  0  0
    2.3614   -1.8522    2.2292 C   0  0  0  0  0  0  0  0  0  0  0  0
    3.2200   -2.8445    1.7464 C   0  0  0  0  0  0  0  0  0  0  0  0
    3.5215   -2.9011    0.3817 C   0  0  0  0  0  0  0  0  0  0  0  0
    2.9635   -1.9707   -0.4989 C   0  0  0  0  0  0  0  0  0  0  0  0
   -1.3702    2.7798    2.4368 C   0  0  0  0  0  0  0  0  0  0  0  0
   -5.2625   -2.9186   -1.2530 H   0  0  0  0  0  0  0  0  0  0  0  0
   -5.5510   -1.6636   -2.4786 H   0  0  0  0  0  0  0  0  0  0  0  0
   -6.2873   -1.5143   -0.8629 H   0  0  0  0  0  0  0  0  0  0  0  0
   -0.2245   -1.0017   -1.7169 H   0  0  0  0  0  0  0  0  0  0  0  0
    1.9168   -0.1959   -2.0320 H   0  0  0  0  0  0  0  0  0  0  0  0
    1.1123    2.1807   -1.0665 H   0  0  0  0  0  0  0  0  0  0  0  0
    1.7569    1.6377    0.4622 H   0  0  0  0  0  0  0  0  0  0  0  0
    2.6329    1.8477   -2.9910 H   0  0  0  0  0  0  0  0  0  0  0  0
    1.1400   -0.1408    1.7376 H   0  0  0  0  0  0  0  0  0  0  0  0
    2.1284   -1.8031    3.2922 H   0  0  0  0  0  0  0  0  0  0  0  0
    3.6566   -3.5696    2.4318 H   0  0  0  0  0  0  0  0  0  0  0  0
    4.1954   -3.6689    0.0040 H   0  0  0  0  0  0  0  0  0  0  0  0
    3.2116   -2.0210   -1.5581 H   0  0  0  0  0  0  0  0  0  0  0  0
   -1.8095    3.7531    2.1583 H   0  0  0  0  0  0  0  0  0  0  0  0
   -1.7796    2.5266    3.4298 H   0  0  0  0  0  0  0  0  0  0  0  0
   -0.2826    2.9189    2.5397 H   0  0  0  0  0  0  0  0  0  0  0  0
  1  2  1  0  0  0  0
  2 23  1  0  0  0  0
  3  2  2  0  0  0  0
  4  3  1  0  0  0  0
  5  4  2  0  0  0  0
  5  6  1  0  0  0  0
  6  1  2  0  0  0  0
  7  6  1  0  0  0  0
  8  7  1  0  0  0  0
  9  8  2  0  0  0  0
  9  5  1  0  0  0  0
 10 24  1  0  0  0  0
 10  8  1  0  0  0  0
 10 26  1  0  0  0  0
 11 12  1  0  0  0  0
 11  4  1  0  0  0  0
 12 28  1  6  0  0  0
 12 13  1  0  0  0  0
 12 17  1  0  0  0  0
 13 30  1  0  0  0  0
 14 13  1  0  0  0  0
 14 15  2  0  0  0  0
 16 14  1  0  0  0  0
 17 18  1  0  0  0  0
 18 32  1  0  0  0  0
 18 19  2  0  0  0  0
 19 33  1  0  0  0  0
 20 19  1  0  0  0  0
 20 34  1  0  0  0  0
 21 20  2  0  0  0  0
 22 17  2  0  0  0  0
 22 21  1  0  0  0  0
 23 39  1  0  0  0  0
 23 38  1  0  0  0  0
 25 10  1  0  0  0  0
 27 11  1  0  0  0  0
 29 13  1  0  0  0  0
 31 16  1  0  0  0  0
 35 21  1  0  0  0  0
 36 22  1  0  0  0  0
 37 23  1  0  0  0  0
M  END
