omegacsd_DIAVER_06.log
 OpenBabel10161801213D
Gaussian 16 # PM6 Opt
 35 36  0  0  0  0  0  0  0  0999 V2000
    3.7803   -0.8438   -0.9718 N   0  0  0  0  0  0  0  0  0  0  0  0
    4.0280   -0.6990    0.3876 C   0  0  0  0  0  0  0  0  0  0  0  0
    3.2711    0.0646    1.2564 N   0  0  0  0  0  0  0  0  0  0  0  0
    2.2485    0.7994    0.6995 C   0  0  0  0  0  0  0  0  0  0  0  0
    1.9464    0.7290   -0.6972 C   0  0  0  0  0  0  0  0  0  0  0  0
    2.7485   -0.1175   -1.4716 C   0  0  0  0  0  0  0  0  0  0  0  0
    0.8436    1.5312   -1.3138 C   0  0  0  0  0  0  0  0  0  0  0  0
   -0.5232    1.1662   -0.7906 C   0  0  0  0  0  0  0  0  0  0  0  0
   -0.8970   -0.1856   -0.6838 C   0  0  0  0  0  0  0  0  0  0  0  0
   -2.1627   -0.5257   -0.2107 C   0  0  0  0  0  0  0  0  0  0  0  0
   -3.0809    0.4962    0.1633 C   0  0  0  0  0  0  0  0  0  0  0  0
   -2.6995    1.8381    0.0495 C   0  0  0  0  0  0  0  0  0  0  0  0
   -1.4254    2.1689   -0.4236 C   0  0  0  0  0  0  0  0  0  0  0  0
   -4.3570    0.3442    0.6581 O   0  0  0  0  0  0  0  0  0  0  0  0
   -4.8909   -0.9990    0.7631 C   0  0  0  0  0  0  0  0  0  0  0  0
   -2.6279   -1.8203   -0.0611 O   0  0  0  0  0  0  0  0  0  0  0  0
   -1.7381   -2.8975   -0.4455 C   0  0  0  0  0  0  0  0  0  0  0  0
    1.5754    1.6485    1.5715 N   0  0  0  0  0  0  0  0  0  0  0  0
    5.1355   -1.3472    0.9098 N   0  0  0  0  0  0  0  0  0  0  0  0
    2.5714   -0.2368   -2.5493 H   0  0  0  0  0  0  0  0  0  0  0  0
    1.0510    2.6142   -1.1586 H   0  0  0  0  0  0  0  0  0  0  0  0
    0.8412    1.4030   -2.4202 H   0  0  0  0  0  0  0  0  0  0  0  0
   -0.1811   -0.9528   -0.9715 H   0  0  0  0  0  0  0  0  0  0  0  0
   -3.4113    2.6135    0.3326 H   0  0  0  0  0  0  0  0  0  0  0  0
   -1.1518    3.2187   -0.5128 H   0  0  0  0  0  0  0  0  0  0  0  0
   -5.8990   -0.8103    1.1487 H   0  0  0  0  0  0  0  0  0  0  0  0
   -4.2909   -1.5866    1.4663 H   0  0  0  0  0  0  0  0  0  0  0  0
   -4.9163   -1.4733   -0.2233 H   0  0  0  0  0  0  0  0  0  0  0  0
   -1.5037   -2.8357   -1.5121 H   0  0  0  0  0  0  0  0  0  0  0  0
   -0.8351   -2.8848    0.1720 H   0  0  0  0  0  0  0  0  0  0  0  0
   -2.3522   -3.7802   -0.2272 H   0  0  0  0  0  0  0  0  0  0  0  0
    1.7577    1.5463    2.5625 H   0  0  0  0  0  0  0  0  0  0  0  0
    0.6355    1.9369    1.3357 H   0  0  0  0  0  0  0  0  0  0  0  0
    5.5972   -2.0489    0.3520 H   0  0  0  0  0  0  0  0  0  0  0  0
    5.2465   -1.3976    1.9105 H   0  0  0  0  0  0  0  0  0  0  0  0
  1  2  1  0  0  0  0
  2 19  1  0  0  0  0
  2  3  2  0  0  0  0
  4  3  1  0  0  0  0
  4 18  1  0  0  0  0
  5  4  2  0  0  0  0
  6  1  2  0  0  0  0
  6  5  1  0  0  0  0
  7 21  1  0  0  0  0
  7  8  1  0  0  0  0
  7  5  1  0  0  0  0
  8  9  2  0  0  0  0
  8 13  1  0  0  0  0
  9 10  1  0  0  0  0
 10 16  1  0  0  0  0
 10 11  2  0  0  0  0
 11 14  1  0  0  0  0
 12 11  1  0  0  0  0
 12 24  1  0  0  0  0
 13 12  2  0  0  0  0
 14 15  1  0  0  0  0
 15 26  1  0  0  0  0
 15 27  1  0  0  0  0
 17 31  1  0  0  0  0
 17 16  1  0  0  0  0
 17 30  1  0  0  0  0
 18 32  1  0  0  0  0
 19 35  1  0  0  0  0
 20  6  1  0  0  0  0
 22  7  1  0  0  0  0
 23  9  1  0  0  0  0
 25 13  1  0  0  0  0
 28 15  1  0  0  0  0
 29 17  1  0  0  0  0
 33 18  1  0  0  0  0
 34 19  1  0  0  0  0
M  END
