omegapdb_1z1r_31.log
 OpenBabel10161801213D
Gaussian 16 # PM6 Opt
 66 68  0  0  1  0  0  0  0  0999 V2000
   -0.0221   -1.5276    0.2032 C   0  0  2  0  0  0  0  0  0  0  0  0
   -0.7750   -2.6071   -0.6127 C   0  0  0  0  0  0  0  0  0  0  0  0
   -2.2410   -2.5865   -0.3002 C   0  0  0  0  0  0  0  0  0  0  0  0
   -2.7092   -3.0304    0.9502 C   0  0  0  0  0  0  0  0  0  0  0  0
   -4.0367   -2.8325    1.3174 C   0  0  0  0  0  0  0  0  0  0  0  0
   -4.8952   -2.1927    0.4059 C   0  0  0  0  0  0  0  0  0  0  0  0
   -4.4798   -1.8437   -0.8844 C   0  0  0  0  0  0  0  0  0  0  0  0
   -3.1408   -2.0405   -1.2269 C   0  0  0  0  0  0  0  0  0  0  0  0
   -6.1769   -1.9655    0.8845 O   0  0  0  0  0  0  0  0  0  0  0  0
   -6.8135   -0.7234    0.4794 C   0  0  0  0  0  0  0  0  0  0  0  0
   -6.0340    0.4902    0.9892 C   0  0  0  0  0  0  0  0  0  0  0  0
   -5.2509    1.2368   -0.0970 C   0  0  0  0  0  0  0  0  0  0  0  0
   -3.7502    1.1792    0.1206 C   0  0  0  0  0  0  0  0  0  0  0  0
   -3.2103    0.8243    1.1602 O   0  0  0  0  0  0  0  0  0  0  0  0
   -2.9823    1.5596   -0.9970 N   0  0  0  0  0  0  0  0  0  0  0  0
   -1.5491    1.9183   -0.9076 C   0  0  2  0  0  0  0  0  0  0  0  0
   -0.6214    0.6701   -0.9011 C   0  0  0  0  0  0  0  0  0  0  0  0
    0.2414    0.5884   -1.7670 O   0  0  0  0  0  0  0  0  0  0  0  0
   -0.7255   -0.2132    0.1568 N   0  0  0  0  0  0  0  0  0  0  0  0
   -1.2176    2.8264    0.2893 C   0  0  0  0  0  0  0  0  0  0  0  0
   -1.9179    4.1621    0.1650 C   0  0  0  0  0  0  0  0  0  0  0  0
   -2.8310    4.3957   -0.6128 O   0  0  0  0  0  0  0  0  0  0  0  0
   -1.4720    5.1650    1.0209 N   0  0  0  0  0  0  0  0  0  0  0  0
    1.4388   -1.4276   -0.3079 C   0  0  2  0  0  0  0  0  0  0  0  0
    1.9920   -2.7091    0.0239 O   0  0  0  0  0  0  0  0  0  0  0  0
    2.2765   -0.3362    0.4054 C   0  0  0  0  0  0  0  0  0  0  0  0
    3.1285    0.4385   -0.5261 N   0  0  0  0  0  0  0  0  0  0  0  0
    4.5460   -0.3443   -1.1103 S   0  0  0  0  0  0  0  0  0  0  0  0
    4.2894   -1.7835   -1.1456 O   0  0  0  0  0  0  0  0  0  0  0  0
    4.9044    0.3481   -2.3277 O   0  0  0  0  0  0  0  0  0  0  0  0
    5.7141   -0.0377    0.1251 C   0  0  0  0  0  0  0  0  0  0  0  0
    6.0049   -1.0279    1.0696 C   0  0  0  0  0  0  0  0  0  0  0  0
    6.9501   -0.7816    2.0691 C   0  0  0  0  0  0  0  0  0  0  0  0
    7.6056    0.4541    2.1190 C   0  0  0  0  0  0  0  0  0  0  0  0
    7.3198    1.4418    1.1703 C   0  0  0  0  0  0  0  0  0  0  0  0
    6.3735    1.1943    0.1707 C   0  0  0  0  0  0  0  0  0  0  0  0
   -0.0017   -1.8365    1.2846 H   0  0  0  0  0  0  0  0  0  0  0  0
   -0.5965   -2.4591   -1.6980 H   0  0  0  0  0  0  0  0  0  0  0  0
   -0.3186   -3.5962   -0.3844 H   0  0  0  0  0  0  0  0  0  0  0  0
   -2.0217   -3.5102    1.6466 H   0  0  0  0  0  0  0  0  0  0  0  0
   -4.4140   -3.1376    2.2904 H   0  0  0  0  0  0  0  0  0  0  0  0
   -5.1779   -1.4268   -1.6021 H   0  0  0  0  0  0  0  0  0  0  0  0
   -2.7918   -1.7461   -2.2168 H   0  0  0  0  0  0  0  0  0  0  0  0
   -7.7918   -0.8353    0.9875 H   0  0  0  0  0  0  0  0  0  0  0  0
   -6.9627   -0.7293   -0.6123 H   0  0  0  0  0  0  0  0  0  0  0  0
   -6.7262    1.1917    1.4942 H   0  0  0  0  0  0  0  0  0  0  0  0
   -5.3353    0.1525    1.7961 H   0  0  0  0  0  0  0  0  0  0  0  0
   -5.5122    0.8475   -1.1035 H   0  0  0  0  0  0  0  0  0  0  0  0
   -5.5564    2.3077   -0.1095 H   0  0  0  0  0  0  0  0  0  0  0  0
   -3.4574    2.0406   -1.7680 H   0  0  0  0  0  0  0  0  0  0  0  0
   -1.2939    2.4732   -1.8620 H   0  0  0  0  0  0  0  0  0  0  0  0
   -1.5589   -0.1561    0.7757 H   0  0  0  0  0  0  0  0  0  0  0  0
   -0.1172    2.9489    0.3683 H   0  0  0  0  0  0  0  0  0  0  0  0
   -1.5334    2.3289    1.2416 H   0  0  0  0  0  0  0  0  0  0  0  0
   -0.7423    5.0387    1.6973 H   0  0  0  0  0  0  0  0  0  0  0  0
   -1.9106    6.0741    0.9963 H   0  0  0  0  0  0  0  0  0  0  0  0
    1.4564   -1.2938   -1.4170 H   0  0  0  0  0  0  0  0  0  0  0  0
    2.8603   -2.8315   -0.4712 H   0  0  0  0  0  0  0  0  0  0  0  0
    2.8993   -0.8144    1.1956 H   0  0  0  0  0  0  0  0  0  0  0  0
    1.6203    0.3873    0.9409 H   0  0  0  0  0  0  0  0  0  0  0  0
    2.5446    0.9283   -1.2331 H   0  0  0  0  0  0  0  0  0  0  0  0
    5.5009   -2.0005    1.0209 H   0  0  0  0  0  0  0  0  0  0  0  0
    7.1786   -1.5519    2.8045 H   0  0  0  0  0  0  0  0  0  0  0  0
    8.3442    0.6462    2.8984 H   0  0  0  0  0  0  0  0  0  0  0  0
    7.8353    2.4003    1.2065 H   0  0  0  0  0  0  0  0  0  0  0  0
    6.1590    1.9637   -0.5784 H   0  0  0  0  0  0  0  0  0  0  0  0
  1 37  1  1  0  0  0
  2 39  1  0  0  0  0
  2  3  1  0  0  0  0
  2  1  1  0  0  0  0
  3  4  2  0  0  0  0
  4  5  1  0  0  0  0
  4 40  1  0  0  0  0
  5 41  1  0  0  0  0
  6  9  1  0  0  0  0
  6  5  2  0  0  0  0
  7  6  1  0  0  0  0
  8  7  2  0  0  0  0
  8  3  1  0  0  0  0
 10  9  1  0  0  0  0
 10 44  1  0  0  0  0
 10 11  1  0  0  0  0
 11 46  1  0  0  0  0
 11 47  1  0  0  0  0
 12 13  1  0  0  0  0
 12 11  1  0  0  0  0
 13 14  2  0  0  0  0
 15 16  1  0  0  0  0
 15 13  1  0  0  0  0
 16 51  1  6  0  0  0
 16 17  1  0  0  0  0
 16 20  1  0  0  0  0
 17 19  1  0  0  0  0
 18 17  2  0  0  0  0
 19  1  1  0  0  0  0
 19 52  1  0  0  0  0
 20 53  1  0  0  0  0
 20 54  1  0  0  0  0
 21 20  1  0  0  0  0
 21 23  1  0  0  0  0
 22 21  2  0  0  0  0
 23 55  1  0  0  0  0
 24 57  1  6  0  0  0
 24 25  1  0  0  0  0
 24  1  1  0  0  0  0
 24 26  1  0  0  0  0
 26 60  1  0  0  0  0
 26 59  1  0  0  0  0
 27 26  1  0  0  0  0
 28 27  1  0  0  0  0
 28 31  1  0  0  0  0
 29 28  2  0  0  0  0
 30 28  2  0  0  0  0
 31 36  2  0  0  0  0
 31 32  1  0  0  0  0
 32 33  2  0  0  0  0
 33 34  1  0  0  0  0
 33 63  1  0  0  0  0
 34 64  1  0  0  0  0
 35 65  1  0  0  0  0
 35 34  2  0  0  0  0
 36 35  1  0  0  0  0
 38  2  1  0  0  0  0
 42  7  1  0  0  0  0
 43  8  1  0  0  0  0
 45 10  1  0  0  0  0
 48 12  1  0  0  0  0
 49 12  1  0  0  0  0
 50 15  1  0  0  0  0
 56 23  1  0  0  0  0
 58 25  1  0  0  0  0
 61 27  1  0  0  0  0
 62 32  1  0  0  0  0
 66 36  1  0  0  0  0
M  END
