omegapdb_1qxw_02.log
 OpenBabel10161801213D
Gaussian 16 # PM6 Opt
 36 36  0  0  1  0  0  0  0  0999 V2000
   -5.1196   -0.5760    0.1826 C   0  0  0  0  0  0  0  0  0  0  0  0
   -4.3900   -1.3078   -0.9255 C   0  0  0  0  0  0  0  0  0  0  0  0
   -3.6587   -0.9678    0.3695 C   0  0  0  0  0  0  0  0  0  0  0  0
   -2.6803    0.1318    0.3125 N   0  0  0  0  0  0  0  0  0  0  0  0
   -1.3050   -0.3747    0.0277 C   0  0  0  0  0  0  0  0  0  0  0  0
   -0.3427    0.8325   -0.0147 C   0  0  0  0  0  0  0  0  0  0  0  0
    1.1392    0.4929   -0.3718 C   0  0  1  0  0  0  0  0  0  0  0  0
    1.8868    1.7852   -0.2956 N   0  0  0  0  0  0  0  0  0  0  0  0
    1.7414   -0.5177    0.6220 C   0  0  0  0  0  0  0  0  0  0  0  0
    2.9679   -1.2519    0.0665 C   0  0  0  0  0  0  0  0  0  0  0  0
    4.2707   -0.4585    0.2400 C   0  0  0  0  0  0  0  0  0  0  0  0
    5.4659   -1.1940   -0.3598 C   0  0  0  0  0  0  0  0  0  0  0  0
   -0.4748    1.4711    1.2452 O   0  0  0  0  0  0  0  0  0  0  0  0
   -0.7248    1.7726   -1.0136 O   0  0  0  0  0  0  0  0  0  0  0  0
   -5.3745    0.4741    0.0418 H   0  0  0  0  0  0  0  0  0  0  0  0
   -5.8859   -1.0864    0.7592 H   0  0  0  0  0  0  0  0  0  0  0  0
   -4.6345   -2.3425   -1.1462 H   0  0  0  0  0  0  0  0  0  0  0  0
   -4.1331   -0.7640   -1.8342 H   0  0  0  0  0  0  0  0  0  0  0  0
   -3.4217   -1.7892    1.0608 H   0  0  0  0  0  0  0  0  0  0  0  0
   -2.6761    0.6443    1.2091 H   0  0  0  0  0  0  0  0  0  0  0  0
   -0.9355   -1.1170    0.7696 H   0  0  0  0  0  0  0  0  0  0  0  0
   -1.3126   -0.8737   -0.9674 H   0  0  0  0  0  0  0  0  0  0  0  0
    1.1394    0.0567   -1.4050 H   0  0  0  0  0  0  0  0  0  0  0  0
    1.5577    2.4207   -1.0233 H   0  0  0  0  0  0  0  0  0  0  0  0
    2.8844    1.6249   -0.4435 H   0  0  0  0  0  0  0  0  0  0  0  0
    1.9940    0.0042    1.5696 H   0  0  0  0  0  0  0  0  0  0  0  0
    0.9709   -1.2634    0.9056 H   0  0  0  0  0  0  0  0  0  0  0  0
    2.8170   -1.4997   -1.0019 H   0  0  0  0  0  0  0  0  0  0  0  0
    3.0676   -2.2287    0.5816 H   0  0  0  0  0  0  0  0  0  0  0  0
    4.4501   -0.2635    1.3161 H   0  0  0  0  0  0  0  0  0  0  0  0
    4.1717    0.5429   -0.2304 H   0  0  0  0  0  0  0  0  0  0  0  0
    5.3411   -1.3640   -1.4351 H   0  0  0  0  0  0  0  0  0  0  0  0
    6.3913   -0.6224   -0.2240 H   0  0  0  0  0  0  0  0  0  0  0  0
    5.6161   -2.1727    0.1107 H   0  0  0  0  0  0  0  0  0  0  0  0
    0.1953    2.1962    1.3412 H   0  0  0  0  0  0  0  0  0  0  0  0
   -1.6858    1.9919   -0.9444 H   0  0  0  0  0  0  0  0  0  0  0  0
  1  3  1  0  0  0  0
  1 16  1  0  0  0  0
  2  1  1  0  0  0  0
  2  3  1  0  0  0  0
  3 19  1  0  0  0  0
  4  3  1  0  0  0  0
  4 20  1  0  0  0  0
  5  4  1  0  0  0  0
  5 21  1  0  0  0  0
  6  5  1  0  0  0  0
  6 13  1  0  0  0  0
  7 23  1  6  0  0  0
  7  8  1  0  0  0  0
  7  6  1  0  0  0  0
  7  9  1  0  0  0  0
  9 27  1  0  0  0  0
  9 26  1  0  0  0  0
 10 11  1  0  0  0  0
 10 29  1  0  0  0  0
 10  9  1  0  0  0  0
 11 30  1  0  0  0  0
 12 33  1  0  0  0  0
 12 34  1  0  0  0  0
 12 11  1  0  0  0  0
 13 35  1  0  0  0  0
 14 36  1  0  0  0  0
 14  6  1  0  0  0  0
 15  1  1  0  0  0  0
 17  2  1  0  0  0  0
 18  2  1  0  0  0  0
 22  5  1  0  0  0  0
 24  8  1  0  0  0  0
 25  8  1  0  0  0  0
 28 10  1  0  0  0  0
 31 11  1  0  0  0  0
 32 12  1  0  0  0  0
M  END
