omegacsd_GALSEM_01.log
 OpenBabel10161801213D
Gaussian 16 # PM6 Opt
 39 40  0  0  0  0  0  0  0  0999 V2000
   -3.1115   -0.2018    1.0153 S   0  0  0  0  0  0  0  0  0  0  0  0
   -2.2620   -0.1989    2.1921 O   0  0  0  0  0  0  0  0  0  0  0  0
   -4.5522   -0.1719    1.1504 O   0  0  0  0  0  0  0  0  0  0  0  0
   -2.8858   -1.7645    0.2447 N   0  0  0  0  0  0  0  0  0  0  0  0
   -1.6176   -2.2645   -0.1046 C   0  0  0  0  0  0  0  0  0  0  0  0
   -0.6509   -1.5374    0.0606 O   0  0  0  0  0  0  0  0  0  0  0  0
   -1.5740   -3.6714   -0.6549 C   0  0  0  0  0  0  0  0  0  0  0  0
   -0.2338   -3.9614   -1.3188 C   0  0  0  0  0  0  0  0  0  0  0  0
   -2.5785    0.9395   -0.1052 C   0  0  0  0  0  0  0  0  0  0  0  0
   -1.2420    1.4126   -0.1855 C   0  0  0  0  0  0  0  0  0  0  0  0
   -0.3152    1.0716    0.7742 N   0  0  0  0  0  0  0  0  0  0  0  0
    1.1017    1.3114    0.6165 C   0  0  0  0  0  0  0  0  0  0  0  0
    1.9364    0.2223    0.3072 C   0  0  0  0  0  0  0  0  0  0  0  0
    3.3129    0.4381    0.2106 C   0  0  0  0  0  0  0  0  0  0  0  0
    3.8515    1.7188    0.4158 C   0  0  0  0  0  0  0  0  0  0  0  0
    3.0063    2.7888    0.7206 C   0  0  0  0  0  0  0  0  0  0  0  0
    1.6262    2.5956    0.8245 C   0  0  0  0  0  0  0  0  0  0  0  0
    4.2529   -0.6914   -0.1205 C   0  0  0  0  0  0  0  0  0  0  0  0
    3.6997   -1.9019   -0.2943 F   0  0  0  0  0  0  0  0  0  0  0  0
    5.1988   -0.9077    0.8103 F   0  0  0  0  0  0  0  0  0  0  0  0
    4.9546   -0.5009   -1.2523 F   0  0  0  0  0  0  0  0  0  0  0  0
   -0.9063    2.3021   -1.2602 C   0  0  0  0  0  0  0  0  0  0  0  0
   -1.8943    2.7120   -2.1297 C   0  0  0  0  0  0  0  0  0  0  0  0
   -3.2121    2.3061   -2.0184 N   0  0  0  0  0  0  0  0  0  0  0  0
   -3.5220    1.4524   -1.0363 C   0  0  0  0  0  0  0  0  0  0  0  0
   -3.7126   -2.3645    0.1212 H   0  0  0  0  0  0  0  0  0  0  0  0
   -2.3991   -3.8436   -1.3772 H   0  0  0  0  0  0  0  0  0  0  0  0
   -1.7477   -4.3883    0.1789 H   0  0  0  0  0  0  0  0  0  0  0  0
   -0.0770   -3.3356   -2.2071 H   0  0  0  0  0  0  0  0  0  0  0  0
   -0.1610   -5.0098   -1.6301 H   0  0  0  0  0  0  0  0  0  0  0  0
    0.6045   -3.7549   -0.6365 H   0  0  0  0  0  0  0  0  0  0  0  0
   -0.5560    0.3551    1.5059 H   0  0  0  0  0  0  0  0  0  0  0  0
    1.4843   -0.7678    0.1474 H   0  0  0  0  0  0  0  0  0  0  0  0
    4.9282    1.8860    0.3404 H   0  0  0  0  0  0  0  0  0  0  0  0
    3.4272    3.7823    0.8838 H   0  0  0  0  0  0  0  0  0  0  0  0
    0.9647    3.4274    1.0735 H   0  0  0  0  0  0  0  0  0  0  0  0
    0.1194    2.6405   -1.3864 H   0  0  0  0  0  0  0  0  0  0  0  0
   -1.6891    3.3931   -2.9661 H   0  0  0  0  0  0  0  0  0  0  0  0
   -4.5827    1.1472   -0.9681 H   0  0  0  0  0  0  0  0  0  0  0  0
  1  3  2  0  0  0  0
  1  2  2  0  0  0  0
  4  1  1  0  0  0  0
  5  6  2  0  0  0  0
  5  4  1  0  0  0  0
  7  5  1  0  0  0  0
  7 28  1  0  0  0  0
  8  7  1  0  0  0  0
  8 31  1  0  0  0  0
  9  1  1  0  0  0  0
 10  9  1  0  0  0  0
 10 11  1  0  0  0  0
 11 32  1  0  0  0  0
 12 11  1  0  0  0  0
 12 17  2  0  0  0  0
 13 12  1  0  0  0  0
 14 13  2  0  0  0  0
 14 15  1  0  0  0  0
 15 16  2  0  0  0  0
 16 17  1  0  0  0  0
 16 35  1  0  0  0  0
 17 36  1  0  0  0  0
 18 14  1  0  0  0  0
 18 20  1  0  0  0  0
 19 18  1  0  0  0  0
 21 18  1  0  0  0  0
 22 10  2  0  0  0  0
 23 24  2  0  0  0  0
 23 22  1  0  0  0  0
 24 25  1  0  0  0  0
 25 39  1  0  0  0  0
 25  9  2  0  0  0  0
 26  4  1  0  0  0  0
 27  7  1  0  0  0  0
 29  8  1  0  0  0  0
 30  8  1  0  0  0  0
 33 13  1  0  0  0  0
 34 15  1  0  0  0  0
 37 22  1  0  0  0  0
 38 23  1  0  0  0  0
M  END
