omegacsd_CUHNEY10_10.log
 OpenBabel10161801213D
Gaussian 16 # PM6 Opt
 44 47  0  0  1  0  0  0  0  0999 V2000
   -4.6462    2.8743    0.4884 Cl  0  0  0  0  0  0  0  0  0  0  0  0
   -2.9930    2.4726    0.3097 C   0  0  0  0  0  0  0  0  0  0  0  0
   -2.4361    1.4518    1.0984 C   0  0  0  0  0  0  0  0  0  0  0  0
   -1.1353    1.0944    0.9867 N   0  0  0  0  0  0  0  0  0  0  0  0
   -0.3521    1.7677    0.0811 C   0  0  0  0  0  0  0  0  0  0  0  0
    1.0127    1.3661    0.0441 N   0  0  0  0  0  0  0  0  0  0  0  0
    2.0515    1.9924   -0.7433 C   0  0  0  0  0  0  0  0  0  0  0  0
    1.8776    2.9064   -1.4989 O   0  0  0  0  0  0  0  0  0  0  0  0
    3.3063    1.2622   -0.3450 C   0  0  0  0  0  0  0  0  0  0  0  0
    4.5582    1.5185   -0.7474 N   0  0  0  0  0  0  0  0  0  0  0  0
    5.5172    0.7084   -0.2050 C   0  0  0  0  0  0  0  0  0  0  0  0
    5.2086   -0.3135    0.7174 C   0  0  0  0  0  0  0  0  0  0  0  0
    3.9259   -0.5723    1.1207 N   0  0  0  0  0  0  0  0  0  0  0  0
    2.9884    0.2157    0.5790 C   0  0  0  0  0  0  0  0  0  0  0  0
    1.4827    0.1584    0.8038 C   0  0  2  0  0  0  0  0  0  0  0  0
    0.9995   -0.9768    0.0562 O   0  0  0  0  0  0  0  0  0  0  0  0
    0.3488   -1.9860    0.7945 C   0  0  0  0  0  0  0  0  0  0  0  0
    0.2475   -1.9285    1.9986 O   0  0  0  0  0  0  0  0  0  0  0  0
    0.0306   -3.0547   -0.0556 N   0  0  0  0  0  0  0  0  0  0  0  0
   -0.9702   -4.0277    0.4849 C   0  0  0  0  0  0  0  0  0  0  0  0
   -2.2526   -4.0833   -0.3760 C   0  0  0  0  0  0  0  0  0  0  0  0
   -2.6294   -2.8009   -1.0330 N   0  0  0  0  0  0  0  0  0  0  0  0
   -1.5182   -2.2935   -1.8980 C   0  0  0  0  0  0  0  0  0  0  0  0
   -0.1068   -2.7947   -1.5139 C   0  0  0  0  0  0  0  0  0  0  0  0
   -3.0706   -1.7821   -0.0352 C   0  0  0  0  0  0  0  0  0  0  0  0
   -0.8547    2.8044   -0.7401 C   0  0  0  0  0  0  0  0  0  0  0  0
   -2.1961    3.1552   -0.6172 C   0  0  0  0  0  0  0  0  0  0  0  0
   -3.0317    0.9035    1.8415 H   0  0  0  0  0  0  0  0  0  0  0  0
    6.5483    0.9024   -0.5278 H   0  0  0  0  0  0  0  0  0  0  0  0
    5.9872   -0.9517    1.1559 H   0  0  0  0  0  0  0  0  0  0  0  0
    1.1322    0.1332    1.8677 H   0  0  0  0  0  0  0  0  0  0  0  0
   -1.2129   -3.7783    1.5442 H   0  0  0  0  0  0  0  0  0  0  0  0
   -0.4700   -5.0225    0.5019 H   0  0  0  0  0  0  0  0  0  0  0  0
   -3.1060   -4.4285    0.2467 H   0  0  0  0  0  0  0  0  0  0  0  0
   -2.1365   -4.8398   -1.1850 H   0  0  0  0  0  0  0  0  0  0  0  0
   -1.5295   -1.1835   -1.9284 H   0  0  0  0  0  0  0  0  0  0  0  0
   -1.7570   -2.6338   -2.9321 H   0  0  0  0  0  0  0  0  0  0  0  0
    0.6688   -2.0620   -1.8350 H   0  0  0  0  0  0  0  0  0  0  0  0
    0.1229   -3.7527   -2.0337 H   0  0  0  0  0  0  0  0  0  0  0  0
   -3.4322   -0.8908   -0.5737 H   0  0  0  0  0  0  0  0  0  0  0  0
   -3.9263   -2.1830    0.5315 H   0  0  0  0  0  0  0  0  0  0  0  0
   -2.3006   -1.4628    0.6841 H   0  0  0  0  0  0  0  0  0  0  0  0
   -0.2055    3.3235   -1.4541 H   0  0  0  0  0  0  0  0  0  0  0  0
   -2.6208    3.9511   -1.2339 H   0  0  0  0  0  0  0  0  0  0  0  0
  2  1  1  0  0  0  0
  2  3  2  0  0  0  0
  3 28  1  0  0  0  0
  4  3  1  0  0  0  0
  5  4  2  0  0  0  0
  6  5  1  0  0  0  0
  6 15  1  0  0  0  0
  7  9  1  0  0  0  0
  7  6  1  0  0  0  0
  8  7  2  0  0  0  0
  9 14  1  0  0  0  0
 10  9  2  0  0  0  0
 10 11  1  0  0  0  0
 11 12  2  0  0  0  0
 12 13  1  0  0  0  0
 12 30  1  0  0  0  0
 14 15  1  0  0  0  0
 14 13  2  0  0  0  0
 15 31  1  1  0  0  0
 16 17  1  0  0  0  0
 16 15  1  0  0  0  0
 17 18  2  0  0  0  0
 19 20  1  0  0  0  0
 19 17  1  0  0  0  0
 20 33  1  0  0  0  0
 20 32  1  0  0  0  0
 21 34  1  0  0  0  0
 21 20  1  0  0  0  0
 22 21  1  0  0  0  0
 22 25  1  0  0  0  0
 23 24  1  0  0  0  0
 23 22  1  0  0  0  0
 24 19  1  0  0  0  0
 25 41  1  0  0  0  0
 25 42  1  0  0  0  0
 26 27  2  0  0  0  0
 26  5  1  0  0  0  0
 27  2  1  0  0  0  0
 29 11  1  0  0  0  0
 35 21  1  0  0  0  0
 36 23  1  0  0  0  0
 37 23  1  0  0  0  0
 38 24  1  0  0  0  0
 39 24  1  0  0  0  0
 40 25  1  0  0  0  0
 43 26  1  0  0  0  0
 44 27  1  0  0  0  0
M  END
