omegapdb_1z1r_01.log
 OpenBabel10161801213D
Gaussian 16 # PM6 Opt
 66 68  0  0  1  0  0  0  0  0999 V2000
   -0.0155   -2.5054    0.9837 C   0  0  2  0  0  0  0  0  0  0  0  0
   -0.2765   -3.1472   -0.4015 C   0  0  0  0  0  0  0  0  0  0  0  0
   -1.5126   -2.5521   -1.0218 C   0  0  0  0  0  0  0  0  0  0  0  0
   -2.7885   -3.0138   -0.6532 C   0  0  0  0  0  0  0  0  0  0  0  0
   -3.9326   -2.3556   -1.0948 C   0  0  0  0  0  0  0  0  0  0  0  0
   -3.7884   -1.2197   -1.9137 C   0  0  0  0  0  0  0  0  0  0  0  0
   -2.5284   -0.7850   -2.3486 C   0  0  0  0  0  0  0  0  0  0  0  0
   -1.3948   -1.4645   -1.9017 C   0  0  0  0  0  0  0  0  0  0  0  0
   -4.9764   -0.6275   -2.2914 O   0  0  0  0  0  0  0  0  0  0  0  0
   -5.0175    0.8291   -2.3680 C   0  0  0  0  0  0  0  0  0  0  0  0
   -5.1661    1.4149   -0.9665 C   0  0  0  0  0  0  0  0  0  0  0  0
   -3.8322    1.7609   -0.3022 C   0  0  0  0  0  0  0  0  0  0  0  0
   -3.9220    1.6167    1.1986 C   0  0  0  0  0  0  0  0  0  0  0  0
   -4.9328    1.7887    1.8589 O   0  0  0  0  0  0  0  0  0  0  0  0
   -2.7590    1.2477    1.9034 N   0  0  0  0  0  0  0  0  0  0  0  0
   -1.4404    1.0315    1.2989 C   0  0  2  0  0  0  0  0  0  0  0  0
   -0.9016   -0.3248    1.8102 C   0  0  0  0  0  0  0  0  0  0  0  0
   -1.0822   -0.7661    2.9342 O   0  0  0  0  0  0  0  0  0  0  0  0
   -0.1275   -1.0292    0.8852 N   0  0  0  0  0  0  0  0  0  0  0  0
   -0.4380    2.1471    1.6355 C   0  0  0  0  0  0  0  0  0  0  0  0
   -0.3315    3.1327    0.4896 C   0  0  0  0  0  0  0  0  0  0  0  0
   -1.2496    3.3999   -0.2745 O   0  0  0  0  0  0  0  0  0  0  0  0
    0.8967    3.7756    0.3667 N   0  0  0  0  0  0  0  0  0  0  0  0
    1.3623   -2.9200    1.5636 C   0  0  2  0  0  0  0  0  0  0  0  0
    1.5243   -2.4487    2.9073 O   0  0  0  0  0  0  0  0  0  0  0  0
    2.6061   -2.4416    0.7693 C   0  0  0  0  0  0  0  0  0  0  0  0
    3.0921   -1.0983    1.1624 N   0  0  0  0  0  0  0  0  0  0  0  0
    2.8005    0.2074    0.1000 S   0  0  0  0  0  0  0  0  0  0  0  0
    2.4608    1.3578    0.9346 O   0  0  0  0  0  0  0  0  0  0  0  0
    1.8154   -0.1947   -0.9068 O   0  0  0  0  0  0  0  0  0  0  0  0
    4.3127    0.4691   -0.6770 C   0  0  0  0  0  0  0  0  0  0  0  0
    4.4164    0.2961   -2.0627 C   0  0  0  0  0  0  0  0  0  0  0  0
    5.6381    0.5146   -2.7038 C   0  0  0  0  0  0  0  0  0  0  0  0
    6.7567    0.9051   -1.9584 C   0  0  0  0  0  0  0  0  0  0  0  0
    6.6542    1.0783   -0.5738 C   0  0  0  0  0  0  0  0  0  0  0  0
    5.4312    0.8603    0.0675 C   0  0  0  0  0  0  0  0  0  0  0  0
   -0.8019   -2.8739    1.7079 H   0  0  0  0  0  0  0  0  0  0  0  0
   -0.3799   -4.2445   -0.2895 H   0  0  0  0  0  0  0  0  0  0  0  0
    0.5992   -2.9955   -1.0682 H   0  0  0  0  0  0  0  0  0  0  0  0
   -2.8869   -3.8789    0.0021 H   0  0  0  0  0  0  0  0  0  0  0  0
   -4.9292   -2.6852   -0.8066 H   0  0  0  0  0  0  0  0  0  0  0  0
   -2.4357    0.0617   -3.0239 H   0  0  0  0  0  0  0  0  0  0  0  0
   -0.4059   -1.1280   -2.2260 H   0  0  0  0  0  0  0  0  0  0  0  0
   -4.1454    1.2107   -2.9209 H   0  0  0  0  0  0  0  0  0  0  0  0
   -5.9347    0.9657   -2.9742 H   0  0  0  0  0  0  0  0  0  0  0  0
   -5.7304    0.6894   -0.3340 H   0  0  0  0  0  0  0  0  0  0  0  0
   -5.8120    2.3162   -0.9963 H   0  0  0  0  0  0  0  0  0  0  0  0
   -3.0075    1.1388   -0.7177 H   0  0  0  0  0  0  0  0  0  0  0  0
   -3.5166    2.8082   -0.5357 H   0  0  0  0  0  0  0  0  0  0  0  0
   -2.8231    1.1347    2.9197 H   0  0  0  0  0  0  0  0  0  0  0  0
   -1.5665    0.9786    0.1704 H   0  0  0  0  0  0  0  0  0  0  0  0
    0.0888   -0.6300   -0.0468 H   0  0  0  0  0  0  0  0  0  0  0  0
    0.5650    1.7247    1.8917 H   0  0  0  0  0  0  0  0  0  0  0  0
   -0.7483    2.6970    2.5523 H   0  0  0  0  0  0  0  0  0  0  0  0
    1.7329    3.3960    0.8036 H   0  0  0  0  0  0  0  0  0  0  0  0
    1.0484    4.3996   -0.4112 H   0  0  0  0  0  0  0  0  0  0  0  0
    1.3998   -4.0341    1.6541 H   0  0  0  0  0  0  0  0  0  0  0  0
    0.7389   -1.9128    3.2078 H   0  0  0  0  0  0  0  0  0  0  0  0
    2.3988   -2.5013   -0.3235 H   0  0  0  0  0  0  0  0  0  0  0  0
    3.4460   -3.1501    0.9813 H   0  0  0  0  0  0  0  0  0  0  0  0
    2.9042   -0.9448    2.1773 H   0  0  0  0  0  0  0  0  0  0  0  0
    3.5388   -0.0074   -2.6466 H   0  0  0  0  0  0  0  0  0  0  0  0
    5.7193    0.3820   -3.7825 H   0  0  0  0  0  0  0  0  0  0  0  0
    7.7118    1.0755   -2.4590 H   0  0  0  0  0  0  0  0  0  0  0  0
    7.5260    1.3826    0.0051 H   0  0  0  0  0  0  0  0  0  0  0  0
    5.3575    0.9992    1.1502 H   0  0  0  0  0  0  0  0  0  0  0  0
  1 24  1  0  0  0  0
  1 37  1  1  0  0  0
  2 38  1  0  0  0  0
  2  1  1  0  0  0  0
  3  4  1  0  0  0  0
  3  2  1  0  0  0  0
  4 40  1  0  0  0  0
  5 41  1  0  0  0  0
  5  4  2  0  0  0  0
  6  5  1  0  0  0  0
  7  6  2  0  0  0  0
  7  8  1  0  0  0  0
  8  3  2  0  0  0  0
  9  6  1  0  0  0  0
 10  9  1  0  0  0  0
 10 11  1  0  0  0  0
 11 46  1  0  0  0  0
 11 12  1  0  0  0  0
 12 13  1  0  0  0  0
 13 14  2  0  0  0  0
 13 15  1  0  0  0  0
 15 50  1  0  0  0  0
 16 51  1  6  0  0  0
 16 20  1  0  0  0  0
 16 17  1  0  0  0  0
 16 15  1  0  0  0  0
 17 18  2  0  0  0  0
 19  1  1  0  0  0  0
 19 17  1  0  0  0  0
 20 53  1  0  0  0  0
 20 54  1  0  0  0  0
 21 20  1  0  0  0  0
 22 21  2  0  0  0  0
 23 21  1  0  0  0  0
 23 55  1  0  0  0  0
 24 57  1  1  0  0  0
 24 25  1  0  0  0  0
 25 58  1  0  0  0  0
 26 60  1  0  0  0  0
 26 27  1  0  0  0  0
 26 24  1  0  0  0  0
 27 61  1  0  0  0  0
 28 29  2  0  0  0  0
 28 27  1  0  0  0  0
 30 28  2  0  0  0  0
 31 36  2  0  0  0  0
 31 28  1  0  0  0  0
 32 31  1  0  0  0  0
 33 32  2  0  0  0  0
 33 34  1  0  0  0  0
 34 35  2  0  0  0  0
 35 65  1  0  0  0  0
 35 36  1  0  0  0  0
 36 66  1  0  0  0  0
 39  2  1  0  0  0  0
 42  7  1  0  0  0  0
 43  8  1  0  0  0  0
 44 10  1  0  0  0  0
 45 10  1  0  0  0  0
 47 11  1  0  0  0  0
 48 12  1  0  0  0  0
 49 12  1  0  0  0  0
 52 19  1  0  0  0  0
 56 23  1  0  0  0  0
 59 26  1  0  0  0  0
 62 32  1  0  0  0  0
 63 33  1  0  0  0  0
 64 34  1  0  0  0  0
M  END
