omegacsd_FABSOQ10_01.log
 OpenBabel10161801213D
Gaussian 16 # PM6 Opt
 45 47  0  0  1  0  0  0  0  0999 V2000
    0.5953   -0.0932   -0.5968 S   0  0  0  0  0  0  0  0  0  0  0  0
   -0.9398    0.2343    0.1583 C   0  0  0  0  0  0  0  0  0  0  0  0
   -1.0637   -0.4932    1.3057 C   0  0  0  0  0  0  0  0  0  0  0  0
    0.0740   -1.3397    1.5738 C   0  0  0  0  0  0  0  0  0  0  0  0
    1.0542   -1.2405    0.6311 C   0  0  0  0  0  0  0  0  0  0  0  0
    2.3420   -1.9888    0.5284 C   0  0  1  0  0  0  0  0  0  0  0  0
    2.2144   -3.0108   -0.4738 O   0  0  0  0  0  0  0  0  0  0  0  0
    3.5384   -1.1033    0.2512 C   0  0  0  0  0  0  0  0  0  0  0  0
    3.6673    0.1467    0.8658 C   0  0  0  0  0  0  0  0  0  0  0  0
    4.7911    0.9463    0.6338 C   0  0  0  0  0  0  0  0  0  0  0  0
    5.7868    0.4651   -0.2248 C   0  0  0  0  0  0  0  0  0  0  0  0
    6.9457    1.1275   -0.5591 O   0  0  0  0  0  0  0  0  0  0  0  0
    7.1623    2.4432    0.0058 C   0  0  0  0  0  0  0  0  0  0  0  0
    5.6855   -0.7992   -0.8448 C   0  0  0  0  0  0  0  0  0  0  0  0
    4.5610   -1.5734   -0.5946 C   0  0  0  0  0  0  0  0  0  0  0  0
   -1.8620    1.2430   -0.4444 C   0  0  2  0  0  0  0  0  0  0  0  0
   -1.6006    2.5253    0.1534 O   0  0  0  0  0  0  0  0  0  0  0  0
   -3.3267    0.8769   -0.3106 C   0  0  0  0  0  0  0  0  0  0  0  0
   -3.7584   -0.4404   -0.4955 C   0  0  0  0  0  0  0  0  0  0  0  0
   -5.1151   -0.7687   -0.4082 C   0  0  0  0  0  0  0  0  0  0  0  0
   -6.0324    0.2534   -0.1362 C   0  0  0  0  0  0  0  0  0  0  0  0
   -7.3941    0.0970   -0.0134 O   0  0  0  0  0  0  0  0  0  0  0  0
   -7.9436   -1.2310   -0.1918 C   0  0  0  0  0  0  0  0  0  0  0  0
   -5.6213    1.5921    0.0430 C   0  0  0  0  0  0  0  0  0  0  0  0
   -4.2691    1.8905   -0.0525 C   0  0  0  0  0  0  0  0  0  0  0  0
   -1.9249   -0.4693    1.9620 H   0  0  0  0  0  0  0  0  0  0  0  0
    0.1099   -1.9847    2.4420 H   0  0  0  0  0  0  0  0  0  0  0  0
    2.5287   -2.6061    1.4480 H   0  0  0  0  0  0  0  0  0  0  0  0
    1.9813   -2.6255   -1.3459 H   0  0  0  0  0  0  0  0  0  0  0  0
    2.8871    0.5127    1.5360 H   0  0  0  0  0  0  0  0  0  0  0  0
    4.8721    1.9152    1.1135 H   0  0  0  0  0  0  0  0  0  0  0  0
    8.1313    2.7177   -0.4317 H   0  0  0  0  0  0  0  0  0  0  0  0
    7.2276    2.3826    1.0958 H   0  0  0  0  0  0  0  0  0  0  0  0
    6.3766    3.1310   -0.3199 H   0  0  0  0  0  0  0  0  0  0  0  0
    6.4844   -1.1415   -1.4983 H   0  0  0  0  0  0  0  0  0  0  0  0
    4.4635   -2.5622   -1.0519 H   0  0  0  0  0  0  0  0  0  0  0  0
   -1.6251    1.4501   -1.5219 H   0  0  0  0  0  0  0  0  0  0  0  0
   -1.6760    2.4752    1.1304 H   0  0  0  0  0  0  0  0  0  0  0  0
   -3.0341   -1.2289   -0.7099 H   0  0  0  0  0  0  0  0  0  0  0  0
   -5.4325   -1.7952   -0.5528 H   0  0  0  0  0  0  0  0  0  0  0  0
   -7.7419   -1.5932   -1.2039 H   0  0  0  0  0  0  0  0  0  0  0  0
   -9.0168   -1.0503   -0.0457 H   0  0  0  0  0  0  0  0  0  0  0  0
   -7.5531   -1.9097    0.5716 H   0  0  0  0  0  0  0  0  0  0  0  0
   -6.3654    2.3591    0.2447 H   0  0  0  0  0  0  0  0  0  0  0  0
   -3.9245    2.9219    0.0673 H   0  0  0  0  0  0  0  0  0  0  0  0
  1  2  1  0  0  0  0
  1  5  1  0  0  0  0
  2  3  2  0  0  0  0
  3  4  1  0  0  0  0
  3 26  1  0  0  0  0
  4 27  1  0  0  0  0
  5  4  2  0  0  0  0
  6  5  1  0  0  0  0
  6 28  1  1  0  0  0
  7  6  1  0  0  0  0
  8  6  1  0  0  0  0
  8  9  2  0  0  0  0
  9 30  1  0  0  0  0
 10  9  1  0  0  0  0
 10 31  1  0  0  0  0
 11 10  2  0  0  0  0
 12 11  1  0  0  0  0
 12 13  1  0  0  0  0
 13 33  1  0  0  0  0
 14 15  2  0  0  0  0
 14 11  1  0  0  0  0
 15  8  1  0  0  0  0
 16 37  1  6  0  0  0
 16 18  1  0  0  0  0
 16 17  1  0  0  0  0
 16  2  1  0  0  0  0
 17 38  1  0  0  0  0
 18 25  2  0  0  0  0
 19 20  2  0  0  0  0
 19 18  1  0  0  0  0
 20 21  1  0  0  0  0
 21 22  1  0  0  0  0
 21 24  2  0  0  0  0
 23 42  1  0  0  0  0
 23 22  1  0  0  0  0
 23 43  1  0  0  0  0
 24 44  1  0  0  0  0
 25 24  1  0  0  0  0
 25 45  1  0  0  0  0
 29  7  1  0  0  0  0
 32 13  1  0  0  0  0
 34 13  1  0  0  0  0
 35 14  1  0  0  0  0
 36 15  1  0  0  0  0
 39 19  1  0  0  0  0
 40 20  1  0  0  0  0
 41 23  1  0  0  0  0
M  END
