omegacsd_FIBREN_09.log
 OpenBabel10161801213D
Gaussian 16 # PM6 Opt
 39 41  0  0  1  0  0  0  0  0999 V2000
   -2.7090   -0.3179    1.9604 N   0  0  0  0  0  0  0  0  0  0  0  0
   -1.3971    0.0103    2.2331 C   0  0  0  0  0  0  0  0  0  0  0  0
   -0.4021    0.2161    1.3101 N   0  0  0  0  0  0  0  0  0  0  0  0
   -0.6803    0.1145   -0.0428 C   0  0  0  0  0  0  0  0  0  0  0  0
   -2.0138   -0.2224   -0.4187 C   0  0  0  0  0  0  0  0  0  0  0  0
   -2.9628   -0.4206    0.6356 C   0  0  0  0  0  0  0  0  0  0  0  0
   -4.1791   -0.7367    0.0725 O   0  0  0  0  0  0  0  0  0  0  0  0
   -3.9116   -0.7164   -1.3613 C   0  0  0  0  0  0  0  0  0  0  0  0
   -2.6639   -0.4210   -1.6566 N   0  0  0  0  0  0  0  0  0  0  0  0
   -5.0912   -1.0290   -2.1710 C   0  0  0  0  0  0  0  0  0  0  0  0
    0.2656    0.3631   -1.0052 N   0  0  0  0  0  0  0  0  0  0  0  0
    1.7165    0.6302   -0.8050 C   0  0  1  0  0  0  0  0  0  0  0  0
    1.9863    1.7351    0.2306 C   0  0  0  0  0  0  0  0  0  0  0  0
    1.5694    3.1005   -0.2133 C   0  0  0  0  0  0  0  0  0  0  0  0
    1.1924    4.0375    0.4466 O   0  0  0  0  0  0  0  0  0  0  0  0
    1.6978    3.2495   -1.5821 O   0  0  0  0  0  0  0  0  0  0  0  0
    2.4595   -0.6510   -0.4629 C   0  0  0  0  0  0  0  0  0  0  0  0
    3.2091   -1.2785   -1.4703 C   0  0  0  0  0  0  0  0  0  0  0  0
    3.9054   -2.4579   -1.1951 C   0  0  0  0  0  0  0  0  0  0  0  0
    3.8564   -3.0192    0.0854 C   0  0  0  0  0  0  0  0  0  0  0  0
    3.1085   -2.3969    1.0891 C   0  0  0  0  0  0  0  0  0  0  0  0
    2.4114   -1.2155    0.8177 C   0  0  0  0  0  0  0  0  0  0  0  0
   -1.0241    0.1623    3.6680 C   0  0  0  0  0  0  0  0  0  0  0  0
   -5.5125   -2.0156   -1.9088 H   0  0  0  0  0  0  0  0  0  0  0  0
   -5.8941   -0.2858   -2.0191 H   0  0  0  0  0  0  0  0  0  0  0  0
   -4.8473   -1.0431   -3.2481 H   0  0  0  0  0  0  0  0  0  0  0  0
   -0.0288    0.2341   -1.9799 H   0  0  0  0  0  0  0  0  0  0  0  0
    2.0810    1.0133   -1.8086 H   0  0  0  0  0  0  0  0  0  0  0  0
    3.0724    1.7513    0.4802 H   0  0  0  0  0  0  0  0  0  0  0  0
    1.4767    1.5042    1.2048 H   0  0  0  0  0  0  0  0  0  0  0  0
    1.4251    4.1538   -1.8926 H   0  0  0  0  0  0  0  0  0  0  0  0
    3.2530   -0.8513   -2.4711 H   0  0  0  0  0  0  0  0  0  0  0  0
    4.4858   -2.9413   -1.9795 H   0  0  0  0  0  0  0  0  0  0  0  0
    4.3981   -3.9392    0.2986 H   0  0  0  0  0  0  0  0  0  0  0  0
    3.0649   -2.8335    2.0859 H   0  0  0  0  0  0  0  0  0  0  0  0
    1.8215   -0.7404    1.6055 H   0  0  0  0  0  0  0  0  0  0  0  0
   -1.8255   -0.1936    4.3384 H   0  0  0  0  0  0  0  0  0  0  0  0
   -0.1047   -0.3922    3.9100 H   0  0  0  0  0  0  0  0  0  0  0  0
   -0.8382    1.2222    3.9116 H   0  0  0  0  0  0  0  0  0  0  0  0
  1  2  1  0  0  0  0
  2 23  1  0  0  0  0
  3  2  2  0  0  0  0
  4  3  1  0  0  0  0
  5  4  2  0  0  0  0
  5  6  1  0  0  0  0
  6  1  2  0  0  0  0
  7  6  1  0  0  0  0
  8  7  1  0  0  0  0
  9  8  2  0  0  0  0
  9  5  1  0  0  0  0
 10 25  1  0  0  0  0
 10 24  1  0  0  0  0
 10  8  1  0  0  0  0
 11 12  1  0  0  0  0
 11  4  1  0  0  0  0
 12 28  1  6  0  0  0
 12 17  1  0  0  0  0
 12 13  1  0  0  0  0
 13 29  1  0  0  0  0
 13 30  1  0  0  0  0
 14 13  1  0  0  0  0
 14 15  2  0  0  0  0
 16 14  1  0  0  0  0
 17 22  2  0  0  0  0
 18 19  2  0  0  0  0
 18 17  1  0  0  0  0
 19 20  1  0  0  0  0
 20 34  1  0  0  0  0
 20 21  2  0  0  0  0
 21 35  1  0  0  0  0
 22 21  1  0  0  0  0
 22 36  1  0  0  0  0
 23 38  1  0  0  0  0
 23 39  1  0  0  0  0
 23 37  1  0  0  0  0
 26 10  1  0  0  0  0
 27 11  1  0  0  0  0
 31 16  1  0  0  0  0
 32 18  1  0  0  0  0
 33 19  1  0  0  0  0
M  END
