omegacsd_FABSOQ10_11.log
 OpenBabel10161801213D
Gaussian 16 # PM6 Opt
 45 47  0  0  1  0  0  0  0  0999 V2000
   -0.0000   -2.3101   -0.8273 S   0  0  0  0  0  0  0  0  0  0  0  0
    1.2614   -1.3675   -0.0904 C   0  0  0  0  0  0  0  0  0  0  0  0
    0.7205   -0.3953    0.7015 C   0  0  0  0  0  0  0  0  0  0  0  0
   -0.7204   -0.3953    0.7016 C   0  0  0  0  0  0  0  0  0  0  0  0
   -1.2614   -1.3675   -0.0903 C   0  0  0  0  0  0  0  0  0  0  0  0
   -2.6896   -1.7308   -0.3326 C   0  0  1  0  0  0  0  0  0  0  0  0
   -3.0631   -2.7781    0.5802 O   0  0  0  0  0  0  0  0  0  0  0  0
   -3.6405   -0.5556   -0.2209 C   0  0  0  0  0  0  0  0  0  0  0  0
   -4.8589   -0.7049    0.4493 C   0  0  0  0  0  0  0  0  0  0  0  0
   -5.7657    0.3561    0.5358 C   0  0  0  0  0  0  0  0  0  0  0  0
   -5.4299    1.5694   -0.0758 C   0  0  0  0  0  0  0  0  0  0  0  0
   -6.2053    2.7067   -0.0821 O   0  0  0  0  0  0  0  0  0  0  0  0
   -7.4897    2.6553    0.5848 C   0  0  0  0  0  0  0  0  0  0  0  0
   -4.2126    1.7393   -0.7710 C   0  0  0  0  0  0  0  0  0  0  0  0
   -3.3295    0.6702   -0.8389 C   0  0  0  0  0  0  0  0  0  0  0  0
    2.6896   -1.7307   -0.3329 C   0  0  2  0  0  0  0  0  0  0  0  0
    3.0631   -2.7782    0.5798 O   0  0  0  0  0  0  0  0  0  0  0  0
    3.6405   -0.5556   -0.2209 C   0  0  0  0  0  0  0  0  0  0  0  0
    3.3295    0.6702   -0.8389 C   0  0  0  0  0  0  0  0  0  0  0  0
    4.2126    1.7393   -0.7710 C   0  0  0  0  0  0  0  0  0  0  0  0
    5.4299    1.5694   -0.0757 C   0  0  0  0  0  0  0  0  0  0  0  0
    6.2052    2.7067   -0.0820 O   0  0  0  0  0  0  0  0  0  0  0  0
    7.4897    2.6553    0.5849 C   0  0  0  0  0  0  0  0  0  0  0  0
    5.7657    0.3561    0.5358 C   0  0  0  0  0  0  0  0  0  0  0  0
    4.8588   -0.7049    0.4492 C   0  0  0  0  0  0  0  0  0  0  0  0
    1.2935    0.3231    1.2751 H   0  0  0  0  0  0  0  0  0  0  0  0
   -1.2934    0.3231    1.2752 H   0  0  0  0  0  0  0  0  0  0  0  0
   -2.8385   -2.2370   -1.3236 H   0  0  0  0  0  0  0  0  0  0  0  0
   -2.8460   -2.5284    1.5041 H   0  0  0  0  0  0  0  0  0  0  0  0
   -5.1075   -1.6675    0.9053 H   0  0  0  0  0  0  0  0  0  0  0  0
   -6.7042    0.2232    1.0620 H   0  0  0  0  0  0  0  0  0  0  0  0
   -7.3561    2.4602    1.6525 H   0  0  0  0  0  0  0  0  0  0  0  0
   -8.1351    1.9108    0.1100 H   0  0  0  0  0  0  0  0  0  0  0  0
   -7.8706    3.6711    0.4150 H   0  0  0  0  0  0  0  0  0  0  0  0
   -3.9927    2.6957   -1.2394 H   0  0  0  0  0  0  0  0  0  0  0  0
   -2.3860    0.7833   -1.3763 H   0  0  0  0  0  0  0  0  0  0  0  0
    2.8384   -2.2368   -1.3240 H   0  0  0  0  0  0  0  0  0  0  0  0
    2.8461   -2.5287    1.5037 H   0  0  0  0  0  0  0  0  0  0  0  0
    2.3860    0.7833   -1.3763 H   0  0  0  0  0  0  0  0  0  0  0  0
    3.9928    2.6958   -1.2393 H   0  0  0  0  0  0  0  0  0  0  0  0
    7.8705    3.6711    0.4151 H   0  0  0  0  0  0  0  0  0  0  0  0
    8.1351    1.9108    0.1100 H   0  0  0  0  0  0  0  0  0  0  0  0
    7.3561    2.4602    1.6526 H   0  0  0  0  0  0  0  0  0  0  0  0
    6.7042    0.2231    1.0621 H   0  0  0  0  0  0  0  0  0  0  0  0
    5.1075   -1.6676    0.9052 H   0  0  0  0  0  0  0  0  0  0  0  0
  1  2  1  0  0  0  0
  1  5  1  0  0  0  0
  2  3  2  0  0  0  0
  3  4  1  0  0  0  0
  3 26  1  0  0  0  0
  4 27  1  0  0  0  0
  5  4  2  0  0  0  0
  6 28  1  6  0  0  0
  6  8  1  0  0  0  0
  6  5  1  0  0  0  0
  6  7  1  0  0  0  0
  7 29  1  0  0  0  0
  8  9  2  0  0  0  0
  9 10  1  0  0  0  0
  9 30  1  0  0  0  0
 10 31  1  0  0  0  0
 11 10  2  0  0  0  0
 12 11  1  0  0  0  0
 12 13  1  0  0  0  0
 13 32  1  0  0  0  0
 14 11  1  0  0  0  0
 15 14  2  0  0  0  0
 15  8  1  0  0  0  0
 16 37  1  6  0  0  0
 16 18  1  0  0  0  0
 16  2  1  0  0  0  0
 16 17  1  0  0  0  0
 17 38  1  0  0  0  0
 18 25  2  0  0  0  0
 19 20  2  0  0  0  0
 19 18  1  0  0  0  0
 20 21  1  0  0  0  0
 21 24  2  0  0  0  0
 22 21  1  0  0  0  0
 22 23  1  0  0  0  0
 23 43  1  0  0  0  0
 24 44  1  0  0  0  0
 25 24  1  0  0  0  0
 25 45  1  0  0  0  0
 33 13  1  0  0  0  0
 34 13  1  0  0  0  0
 35 14  1  0  0  0  0
 36 15  1  0  0  0  0
 39 19  1  0  0  0  0
 40 20  1  0  0  0  0
 41 23  1  0  0  0  0
 42 23  1  0  0  0  0
M  END
