omegapdb_1qxw_22.log
 OpenBabel10161801213D
Gaussian 16 # PM6 Opt
 36 36  0  0  1  0  0  0  0  0999 V2000
   -3.2166    0.0207    1.0865 C   0  0  0  0  0  0  0  0  0  0  0  0
   -4.1090    1.0463    0.4153 C   0  0  0  0  0  0  0  0  0  0  0  0
   -2.5982    1.1443    0.2509 C   0  0  0  0  0  0  0  0  0  0  0  0
   -2.0531    0.9131   -1.0867 N   0  0  0  0  0  0  0  0  0  0  0  0
   -0.5824    0.7482   -1.1257 C   0  0  0  0  0  0  0  0  0  0  0  0
   -0.0643   -0.6540   -0.7232 C   0  0  0  0  0  0  0  0  0  0  0  0
    0.1761   -0.9164    0.7888 C   0  0  1  0  0  0  0  0  0  0  0  0
    0.8217   -2.2627    0.8815 N   0  0  0  0  0  0  0  0  0  0  0  0
    1.0308    0.1600    1.4839 C   0  0  0  0  0  0  0  0  0  0  0  0
    2.5133    0.2082    1.0891 C   0  0  0  0  0  0  0  0  0  0  0  0
    2.8068    1.1970   -0.0476 C   0  0  0  0  0  0  0  0  0  0  0  0
    4.3054    1.3109   -0.3187 C   0  0  0  0  0  0  0  0  0  0  0  0
    1.0543   -0.8942   -1.5546 O   0  0  0  0  0  0  0  0  0  0  0  0
   -1.0428   -1.6444   -1.1028 O   0  0  0  0  0  0  0  0  0  0  0  0
   -3.1128    0.0276    2.1665 H   0  0  0  0  0  0  0  0  0  0  0  0
   -3.2047   -0.9995    0.7058 H   0  0  0  0  0  0  0  0  0  0  0  0
   -4.7289    0.7478   -0.4279 H   0  0  0  0  0  0  0  0  0  0  0  0
   -4.6263    1.7893    1.0169 H   0  0  0  0  0  0  0  0  0  0  0  0
   -2.0692    1.9528    0.7761 H   0  0  0  0  0  0  0  0  0  0  0  0
   -2.5016    0.0996   -1.5339 H   0  0  0  0  0  0  0  0  0  0  0  0
   -0.2620    0.9468   -2.1799 H   0  0  0  0  0  0  0  0  0  0  0  0
   -0.0826    1.5291   -0.5122 H   0  0  0  0  0  0  0  0  0  0  0  0
   -0.8422   -0.9065    1.2709 H   0  0  0  0  0  0  0  0  0  0  0  0
    0.1485   -2.9844    0.6235 H   0  0  0  0  0  0  0  0  0  0  0  0
    1.1313   -2.4505    1.8295 H   0  0  0  0  0  0  0  0  0  0  0  0
    0.9628   -0.0049    2.5791 H   0  0  0  0  0  0  0  0  0  0  0  0
    0.5614    1.1515    1.3135 H   0  0  0  0  0  0  0  0  0  0  0  0
    3.1117    0.4863    1.9792 H   0  0  0  0  0  0  0  0  0  0  0  0
    2.8697   -0.8013    0.8011 H   0  0  0  0  0  0  0  0  0  0  0  0
    2.3970    2.1950    0.1978 H   0  0  0  0  0  0  0  0  0  0  0  0
    2.2868    0.8666   -0.9731 H   0  0  0  0  0  0  0  0  0  0  0  0
    4.5044    2.0049   -1.1433 H   0  0  0  0  0  0  0  0  0  0  0  0
    4.7395    0.3435   -0.5962 H   0  0  0  0  0  0  0  0  0  0  0  0
    4.8510    1.6772    0.5578 H   0  0  0  0  0  0  0  0  0  0  0  0
    1.6852   -1.5430   -1.1381 H   0  0  0  0  0  0  0  0  0  0  0  0
   -0.8627   -1.9617   -2.0141 H   0  0  0  0  0  0  0  0  0  0  0  0
  1 15  1  0  0  0  0
  2 18  1  0  0  0  0
  2  1  1  0  0  0  0
  3  2  1  0  0  0  0
  3 19  1  0  0  0  0
  3  1  1  0  0  0  0
  4  3  1  0  0  0  0
  5  4  1  0  0  0  0
  5  6  1  0  0  0  0
  5 22  1  0  0  0  0
  6  7  1  0  0  0  0
  7  8  1  0  0  0  0
  7 23  1  1  0  0  0
  7  9  1  0  0  0  0
  8 25  1  0  0  0  0
  9 26  1  0  0  0  0
 10  9  1  0  0  0  0
 10 28  1  0  0  0  0
 11 30  1  0  0  0  0
 11 10  1  0  0  0  0
 12 11  1  0  0  0  0
 12 34  1  0  0  0  0
 13 35  1  0  0  0  0
 13  6  1  0  0  0  0
 14  6  1  0  0  0  0
 16  1  1  0  0  0  0
 17  2  1  0  0  0  0
 20  4  1  0  0  0  0
 21  5  1  0  0  0  0
 24  8  1  0  0  0  0
 27  9  1  0  0  0  0
 29 10  1  0  0  0  0
 31 11  1  0  0  0  0
 32 12  1  0  0  0  0
 33 12  1  0  0  0  0
 36 14  1  0  0  0  0
M  END
