omegapdb_1qxw_25.log
 OpenBabel10161801213D
Gaussian 16 # PM6 Opt
 36 36  0  0  1  0  0  0  0  0999 V2000
    4.5104   -1.2447    0.6514 C   0  0  0  0  0  0  0  0  0  0  0  0
    4.3891   -0.7843   -0.7871 C   0  0  0  0  0  0  0  0  0  0  0  0
    3.7597    0.0420    0.3300 C   0  0  0  0  0  0  0  0  0  0  0  0
    2.2922   -0.0147    0.4533 N   0  0  0  0  0  0  0  0  0  0  0  0
    1.6380    1.0928   -0.3022 C   0  0  0  0  0  0  0  0  0  0  0  0
    0.1047    1.0074   -0.1227 C   0  0  0  0  0  0  0  0  0  0  0  0
   -0.6138   -0.1645   -0.8707 C   0  0  1  0  0  0  0  0  0  0  0  0
   -0.1412   -1.5046   -0.4592 N   0  0  0  0  0  0  0  0  0  0  0  0
   -2.1495   -0.0570   -0.7616 C   0  0  0  0  0  0  0  0  0  0  0  0
   -2.7516   -0.5018    0.5756 C   0  0  0  0  0  0  0  0  0  0  0  0
   -4.2416   -0.1476    0.6901 C   0  0  0  0  0  0  0  0  0  0  0  0
   -5.1243   -1.0117   -0.2068 C   0  0  0  0  0  0  0  0  0  0  0  0
   -0.1075    1.0490    1.2820 O   0  0  0  0  0  0  0  0  0  0  0  0
   -0.4851    2.1982   -0.6502 O   0  0  0  0  0  0  0  0  0  0  0  0
    5.4683   -1.1890    1.1612 H   0  0  0  0  0  0  0  0  0  0  0  0
    3.9510   -2.1226    0.9731 H   0  0  0  0  0  0  0  0  0  0  0  0
    5.2603   -0.4004   -1.3101 H   0  0  0  0  0  0  0  0  0  0  0  0
    3.7413   -1.3393   -1.4649 H   0  0  0  0  0  0  0  0  0  0  0  0
    4.2288    1.0014    0.5915 H   0  0  0  0  0  0  0  0  0  0  0  0
    2.0222    0.0464    1.4476 H   0  0  0  0  0  0  0  0  0  0  0  0
    1.9823    2.1048    0.0047 H   0  0  0  0  0  0  0  0  0  0  0  0
    1.8878    0.9905   -1.3823 H   0  0  0  0  0  0  0  0  0  0  0  0
   -0.3535   -0.0348   -1.9604 H   0  0  0  0  0  0  0  0  0  0  0  0
    0.8571   -1.6097   -0.6559 H   0  0  0  0  0  0  0  0  0  0  0  0
   -0.2489   -1.6373    0.5428 H   0  0  0  0  0  0  0  0  0  0  0  0
   -2.4400    0.9924   -0.9844 H   0  0  0  0  0  0  0  0  0  0  0  0
   -2.5908   -0.6754   -1.5716 H   0  0  0  0  0  0  0  0  0  0  0  0
   -2.2026   -0.0307    1.4238 H   0  0  0  0  0  0  0  0  0  0  0  0
   -2.6164   -1.5958    0.6998 H   0  0  0  0  0  0  0  0  0  0  0  0
   -4.3966    0.9224    0.4472 H   0  0  0  0  0  0  0  0  0  0  0  0
   -4.5621   -0.2662    1.7446 H   0  0  0  0  0  0  0  0  0  0  0  0
   -6.1837   -0.7633   -0.0799 H   0  0  0  0  0  0  0  0  0  0  0  0
   -4.8789   -0.8750   -1.2666 H   0  0  0  0  0  0  0  0  0  0  0  0
   -5.0055   -2.0784    0.0170 H   0  0  0  0  0  0  0  0  0  0  0  0
   -1.0616    0.8627    1.5118 H   0  0  0  0  0  0  0  0  0  0  0  0
   -0.3023    2.9703   -0.0779 H   0  0  0  0  0  0  0  0  0  0  0  0
  1 16  1  0  0  0  0
  1 15  1  0  0  0  0
  2  3  1  0  0  0  0
  2  1  1  0  0  0  0
  3  4  1  0  0  0  0
  3 19  1  0  0  0  0
  3  1  1  0  0  0  0
  4 20  1  0  0  0  0
  5  6  1  0  0  0  0
  5 21  1  0  0  0  0
  5  4  1  0  0  0  0
  6 13  1  0  0  0  0
  7 23  1  6  0  0  0
  7  9  1  0  0  0  0
  7  8  1  0  0  0  0
  7  6  1  0  0  0  0
  8 25  1  0  0  0  0
  9 10  1  0  0  0  0
 10 11  1  0  0  0  0
 10 29  1  0  0  0  0
 10 28  1  0  0  0  0
 11 31  1  0  0  0  0
 12 32  1  0  0  0  0
 12 34  1  0  0  0  0
 12 11  1  0  0  0  0
 13 35  1  0  0  0  0
 14  6  1  0  0  0  0
 14 36  1  0  0  0  0
 17  2  1  0  0  0  0
 18  2  1  0  0  0  0
 22  5  1  0  0  0  0
 24  8  1  0  0  0  0
 26  9  1  0  0  0  0
 27  9  1  0  0  0  0
 30 11  1  0  0  0  0
 33 12  1  0  0  0  0
M  END
