omegapdb_1gs5_15.log
 OpenBabel10161801213D
Gaussian 16 # PM6 Opt
 24 23  0  0  1  0  0  0  0  0999 V2000
    0.9418   -0.4322    0.3931 C   0  0  2  0  0  0  0  0  0  0  0  0
    2.0633   -1.4584    0.2218 C   0  0  0  0  0  0  0  0  0  0  0  0
    2.4465   -2.2824    1.0117 O   0  0  0  0  0  0  0  0  0  0  0  0
    2.6330   -1.3715   -1.0267 O   0  0  0  0  0  0  0  0  0  0  0  0
   -0.3846   -1.0527   -0.0921 C   0  0  0  0  0  0  0  0  0  0  0  0
   -1.5834   -0.3978    0.5990 C   0  0  0  0  0  0  0  0  0  0  0  0
   -2.8323   -0.5307   -0.2293 C   0  0  0  0  0  0  0  0  0  0  0  0
   -2.9619   -1.0409   -1.3113 O   0  0  0  0  0  0  0  0  0  0  0  0
   -3.9731    0.0131    0.3308 O   0  0  0  0  0  0  0  0  0  0  0  0
    1.2895    0.8067   -0.3317 N   0  0  0  0  0  0  0  0  0  0  0  0
    0.8537    2.0536    0.1399 C   0  0  0  0  0  0  0  0  0  0  0  0
    0.1792    2.1238    1.1557 O   0  0  0  0  0  0  0  0  0  0  0  0
    1.2858    3.2298   -0.6803 C   0  0  0  0  0  0  0  0  0  0  0  0
    0.8685   -0.1929    1.4996 H   0  0  0  0  0  0  0  0  0  0  0  0
    3.3653   -2.0339   -1.1637 H   0  0  0  0  0  0  0  0  0  0  0  0
   -0.3971   -2.1466    0.0991 H   0  0  0  0  0  0  0  0  0  0  0  0
   -0.4769   -0.9544   -1.1978 H   0  0  0  0  0  0  0  0  0  0  0  0
   -1.3742    0.6865    0.7968 H   0  0  0  0  0  0  0  0  0  0  0  0
   -1.7359   -0.8412    1.6058 H   0  0  0  0  0  0  0  0  0  0  0  0
   -3.8546    0.4541    1.2004 H   0  0  0  0  0  0  0  0  0  0  0  0
    1.7409    0.6936   -1.2392 H   0  0  0  0  0  0  0  0  0  0  0  0
    0.9790    4.1676   -0.1846 H   0  0  0  0  0  0  0  0  0  0  0  0
    0.8278    3.2343   -1.6796 H   0  0  0  0  0  0  0  0  0  0  0  0
    2.3760    3.2803   -0.8110 H   0  0  0  0  0  0  0  0  0  0  0  0
  1 14  1  1  0  0  0
  2  1  1  0  0  0  0
  2  3  2  0  0  0  0
  4  2  1  0  0  0  0
  5 16  1  0  0  0  0
  5  1  1  0  0  0  0
  5  6  1  0  0  0  0
  6 18  1  0  0  0  0
  6 19  1  0  0  0  0
  7  9  1  0  0  0  0
  7  6  1  0  0  0  0
  8  7  2  0  0  0  0
  9 20  1  0  0  0  0
 10 11  1  0  0  0  0
 10  1  1  0  0  0  0
 11 12  2  0  0  0  0
 13 22  1  0  0  0  0
 13 11  1  0  0  0  0
 15  4  1  0  0  0  0
 17  5  1  0  0  0  0
 21 10  1  0  0  0  0
 23 13  1  0  0  0  0
 24 13  1  0  0  0  0
M  END
