omegapdb_1z1r_08.log
 OpenBabel10161801213D
Gaussian 16 # PM6 Opt
 66 68  0  0  1  0  0  0  0  0999 V2000
   -0.2829   -2.4199    0.9099 C   0  0  2  0  0  0  0  0  0  0  0  0
   -0.8668   -3.3600   -0.1730 C   0  0  0  0  0  0  0  0  0  0  0  0
   -2.1967   -2.8385   -0.6498 C   0  0  0  0  0  0  0  0  0  0  0  0
   -2.2863   -2.1604   -1.8753 C   0  0  0  0  0  0  0  0  0  0  0  0
   -3.4551   -1.4837   -2.2278 C   0  0  0  0  0  0  0  0  0  0  0  0
   -4.5413   -1.5118   -1.3420 C   0  0  0  0  0  0  0  0  0  0  0  0
   -4.5059   -2.2677   -0.1568 C   0  0  0  0  0  0  0  0  0  0  0  0
   -3.3283   -2.9286    0.1810 C   0  0  0  0  0  0  0  0  0  0  0  0
   -5.7325   -0.8563   -1.6020 O   0  0  0  0  0  0  0  0  0  0  0  0
   -5.6369    0.5631   -1.9280 C   0  0  0  0  0  0  0  0  0  0  0  0
   -5.3591    1.3754   -0.6663 C   0  0  0  0  0  0  0  0  0  0  0  0
   -3.8679    1.5828   -0.3874 C   0  0  0  0  0  0  0  0  0  0  0  0
   -3.6286    1.8428    1.0817 C   0  0  0  0  0  0  0  0  0  0  0  0
   -4.4852    2.1773    1.8824 O   0  0  0  0  0  0  0  0  0  0  0  0
   -2.3233    1.6748    1.5850 N   0  0  0  0  0  0  0  0  0  0  0  0
   -1.1331    1.3414    0.7913 C   0  0  2  0  0  0  0  0  0  0  0  0
   -0.5477    0.0387    1.3912 C   0  0  0  0  0  0  0  0  0  0  0  0
   -0.2320   -0.0972    2.5647 O   0  0  0  0  0  0  0  0  0  0  0  0
   -0.4483   -1.0085    0.4827 N   0  0  0  0  0  0  0  0  0  0  0  0
   -0.0728    2.4495    0.8255 C   0  0  0  0  0  0  0  0  0  0  0  0
   -0.4763    3.5749   -0.0961 C   0  0  0  0  0  0  0  0  0  0  0  0
   -1.2976    3.4631   -0.9976 O   0  0  0  0  0  0  0  0  0  0  0  0
    0.1637    4.7943    0.1014 N   0  0  0  0  0  0  0  0  0  0  0  0
    1.1949   -2.7706    1.2422 C   0  0  2  0  0  0  0  0  0  0  0  0
    1.5045   -2.3517    2.5677 O   0  0  0  0  0  0  0  0  0  0  0  0
    2.2453   -2.2068    0.2424 C   0  0  0  0  0  0  0  0  0  0  0  0
    3.3609   -1.5078    0.9214 N   0  0  0  0  0  0  0  0  0  0  0  0
    3.5516    0.1741    0.6345 S   0  0  0  0  0  0  0  0  0  0  0  0
    4.0234    0.7541    1.8722 O   0  0  0  0  0  0  0  0  0  0  0  0
    2.3165    0.6952    0.0400 O   0  0  0  0  0  0  0  0  0  0  0  0
    4.7915    0.2361   -0.5663 C   0  0  0  0  0  0  0  0  0  0  0  0
    6.1230    0.0062   -0.2065 C   0  0  0  0  0  0  0  0  0  0  0  0
    7.1268    0.0580   -1.1791 C   0  0  0  0  0  0  0  0  0  0  0  0
    6.7958    0.3423   -2.5080 C   0  0  0  0  0  0  0  0  0  0  0  0
    5.4634    0.5781   -2.8670 C   0  0  0  0  0  0  0  0  0  0  0  0
    4.4613    0.5256   -1.8947 C   0  0  0  0  0  0  0  0  0  0  0  0
   -0.8670   -2.5580    1.8684 H   0  0  0  0  0  0  0  0  0  0  0  0
   -0.9783   -4.3800    0.2504 H   0  0  0  0  0  0  0  0  0  0  0  0
   -0.1592   -3.4727   -1.0177 H   0  0  0  0  0  0  0  0  0  0  0  0
   -1.4381   -2.1477   -2.5583 H   0  0  0  0  0  0  0  0  0  0  0  0
   -3.5260   -0.9479   -3.1706 H   0  0  0  0  0  0  0  0  0  0  0  0
   -5.3866   -2.3046    0.4831 H   0  0  0  0  0  0  0  0  0  0  0  0
   -3.2774   -3.4951    1.1110 H   0  0  0  0  0  0  0  0  0  0  0  0
   -4.8980    0.7206   -2.7283 H   0  0  0  0  0  0  0  0  0  0  0  0
   -6.6582    0.7408   -2.3189 H   0  0  0  0  0  0  0  0  0  0  0  0
   -5.8385    0.8661    0.2033 H   0  0  0  0  0  0  0  0  0  0  0  0
   -5.8678    2.3595   -0.7255 H   0  0  0  0  0  0  0  0  0  0  0  0
   -3.2850    0.7016   -0.7292 H   0  0  0  0  0  0  0  0  0  0  0  0
   -3.4650    2.4461   -0.9732 H   0  0  0  0  0  0  0  0  0  0  0  0
   -2.1719    1.8407    2.5848 H   0  0  0  0  0  0  0  0  0  0  0  0
   -1.4287    1.1819   -0.2882 H   0  0  0  0  0  0  0  0  0  0  0  0
   -0.5623   -0.8416   -0.5152 H   0  0  0  0  0  0  0  0  0  0  0  0
    0.1157    2.7882    1.8640 H   0  0  0  0  0  0  0  0  0  0  0  0
    0.9196    2.0283    0.4853 H   0  0  0  0  0  0  0  0  0  0  0  0
    0.8383    4.9556    0.8266 H   0  0  0  0  0  0  0  0  0  0  0  0
   -0.0670    5.5823   -0.4844 H   0  0  0  0  0  0  0  0  0  0  0  0
    1.3130   -3.8798    1.3179 H   0  0  0  0  0  0  0  0  0  0  0  0
    1.0732   -1.4668    2.7910 H   0  0  0  0  0  0  0  0  0  0  0  0
    1.7655   -1.5533   -0.5195 H   0  0  0  0  0  0  0  0  0  0  0  0
    2.6920   -3.0615   -0.3205 H   0  0  0  0  0  0  0  0  0  0  0  0
    3.4288   -1.8162    1.9170 H   0  0  0  0  0  0  0  0  0  0  0  0
    6.3870   -0.2069    0.8344 H   0  0  0  0  0  0  0  0  0  0  0  0
    8.1645   -0.1210   -0.8999 H   0  0  0  0  0  0  0  0  0  0  0  0
    7.5786    0.3828   -3.2670 H   0  0  0  0  0  0  0  0  0  0  0  0
    5.2085    0.8052   -3.9013 H   0  0  0  0  0  0  0  0  0  0  0  0
    3.4193    0.7207   -2.1721 H   0  0  0  0  0  0  0  0  0  0  0  0
  1 24  1  0  0  0  0
  1 37  1  1  0  0  0
  2 38  1  0  0  0  0
  2  1  1  0  0  0  0
  3  2  1  0  0  0  0
  3  8  2  0  0  0  0
  4  3  1  0  0  0  0
  5  4  2  0  0  0  0
  5  6  1  0  0  0  0
  6  7  2  0  0  0  0
  7  8  1  0  0  0  0
  7 42  1  0  0  0  0
  8 43  1  0  0  0  0
  9  6  1  0  0  0  0
 10  9  1  0  0  0  0
 10 11  1  0  0  0  0
 11 12  1  0  0  0  0
 11 46  1  0  0  0  0
 12 13  1  0  0  0  0
 13 15  1  0  0  0  0
 13 14  2  0  0  0  0
 15 50  1  0  0  0  0
 16 51  1  6  0  0  0
 16 20  1  0  0  0  0
 16 17  1  0  0  0  0
 16 15  1  0  0  0  0
 17 18  2  0  0  0  0
 19  1  1  0  0  0  0
 19 17  1  0  0  0  0
 20 53  1  0  0  0  0
 21 23  1  0  0  0  0
 21 20  1  0  0  0  0
 22 21  2  0  0  0  0
 23 55  1  0  0  0  0
 24 57  1  6  0  0  0
 24 25  1  0  0  0  0
 25 58  1  0  0  0  0
 26 27  1  0  0  0  0
 26 24  1  0  0  0  0
 27 61  1  0  0  0  0
 28 27  1  0  0  0  0
 28 29  2  0  0  0  0
 30 28  2  0  0  0  0
 31 32  1  0  0  0  0
 31 28  1  0  0  0  0
 32 62  1  0  0  0  0
 33 63  1  0  0  0  0
 33 32  2  0  0  0  0
 34 33  1  0  0  0  0
 35 34  2  0  0  0  0
 35 36  1  0  0  0  0
 36 31  2  0  0  0  0
 39  2  1  0  0  0  0
 40  4  1  0  0  0  0
 41  5  1  0  0  0  0
 44 10  1  0  0  0  0
 45 10  1  0  0  0  0
 47 11  1  0  0  0  0
 48 12  1  0  0  0  0
 49 12  1  0  0  0  0
 52 19  1  0  0  0  0
 54 20  1  0  0  0  0
 56 23  1  0  0  0  0
 59 26  1  0  0  0  0
 60 26  1  0  0  0  0
 64 34  1  0  0  0  0
 65 35  1  0  0  0  0
 66 36  1  0  0  0  0
M  END
