omegapdb_1gs5_12.log
 OpenBabel10161801213D
Gaussian 16 # PM6 Opt
 24 23  0  0  1  0  0  0  0  0999 V2000
    0.6683    0.4442   -0.4919 C   0  0  2  0  0  0  0  0  0  0  0  0
    0.4875    1.7572    0.2801 C   0  0  0  0  0  0  0  0  0  0  0  0
    0.0778    1.9319    1.4047 O   0  0  0  0  0  0  0  0  0  0  0  0
    0.8528    2.8095   -0.5081 O   0  0  0  0  0  0  0  0  0  0  0  0
   -0.7082   -0.1277   -0.8718 C   0  0  0  0  0  0  0  0  0  0  0  0
   -1.6183   -0.4232    0.3232 C   0  0  0  0  0  0  0  0  0  0  0  0
   -3.0330   -0.6770   -0.1315 C   0  0  0  0  0  0  0  0  0  0  0  0
   -3.4577   -0.7399   -1.2540 O   0  0  0  0  0  0  0  0  0  0  0  0
   -3.9525   -0.8669    0.8834 O   0  0  0  0  0  0  0  0  0  0  0  0
    1.4590   -0.4647    0.3529 N   0  0  0  0  0  0  0  0  0  0  0  0
    2.6869   -0.9854   -0.1063 C   0  0  0  0  0  0  0  0  0  0  0  0
    3.0957   -0.6971   -1.2138 O   0  0  0  0  0  0  0  0  0  0  0  0
    3.3863   -1.8841    0.8679 C   0  0  0  0  0  0  0  0  0  0  0  0
    1.2523    0.6541   -1.4466 H   0  0  0  0  0  0  0  0  0  0  0  0
    0.7527    3.6944   -0.0573 H   0  0  0  0  0  0  0  0  0  0  0  0
   -0.5593   -1.0556   -1.4683 H   0  0  0  0  0  0  0  0  0  0  0  0
   -1.2160    0.5762   -1.5703 H   0  0  0  0  0  0  0  0  0  0  0  0
   -1.5956    0.4240    1.0500 H   0  0  0  0  0  0  0  0  0  0  0  0
   -1.2435   -1.3057    0.8829 H   0  0  0  0  0  0  0  0  0  0  0  0
   -3.6080   -0.7838    1.7978 H   0  0  0  0  0  0  0  0  0  0  0  0
    1.0847   -0.6842    1.2701 H   0  0  0  0  0  0  0  0  0  0  0  0
    3.6251   -1.3786    1.8138 H   0  0  0  0  0  0  0  0  0  0  0  0
    4.3448   -2.2262    0.4386 H   0  0  0  0  0  0  0  0  0  0  0  0
    2.8048   -2.7858    1.1028 H   0  0  0  0  0  0  0  0  0  0  0  0
  1 14  1  6  0  0  0
  1  2  1  0  0  0  0
  1 10  1  0  0  0  0
  2  3  2  0  0  0  0
  4 15  1  0  0  0  0
  4  2  1  0  0  0  0
  5  1  1  0  0  0  0
  5  6  1  0  0  0  0
  6 19  1  0  0  0  0
  6 18  1  0  0  0  0
  7  6  1  0  0  0  0
  7  9  1  0  0  0  0
  8  7  2  0  0  0  0
  9 20  1  0  0  0  0
 10 21  1  0  0  0  0
 11 10  1  0  0  0  0
 11 13  1  0  0  0  0
 12 11  2  0  0  0  0
 13 24  1  0  0  0  0
 13 22  1  0  0  0  0
 16  5  1  0  0  0  0
 17  5  1  0  0  0  0
 23 13  1  0  0  0  0
M  END
