omegapdb_1gs5_22.log
 OpenBabel10161801213D
Gaussian 16 # PM6 Opt
 24 23  0  0  1  0  0  0  0  0999 V2000
   -0.5378    0.4313    0.8616 C   0  0  2  0  0  0  0  0  0  0  0  0
   -0.7581    1.7595    0.0941 C   0  0  0  0  0  0  0  0  0  0  0  0
   -0.6520    2.8376    0.6254 O   0  0  0  0  0  0  0  0  0  0  0  0
   -1.0380    1.7087   -1.2274 O   0  0  0  0  0  0  0  0  0  0  0  0
    0.6227   -0.3716    0.2487 C   0  0  0  0  0  0  0  0  0  0  0  0
    1.9274    0.4257    0.2679 C   0  0  0  0  0  0  0  0  0  0  0  0
    3.1149   -0.4137   -0.1025 C   0  0  0  0  0  0  0  0  0  0  0  0
    4.0716   -0.1274   -0.7789 O   0  0  0  0  0  0  0  0  0  0  0  0
    3.0398   -1.6658    0.4730 O   0  0  0  0  0  0  0  0  0  0  0  0
   -1.7875   -0.3560    0.9226 N   0  0  0  0  0  0  0  0  0  0  0  0
   -2.3618   -0.9788   -0.1902 C   0  0  0  0  0  0  0  0  0  0  0  0
   -1.8856   -0.8199   -1.3100 O   0  0  0  0  0  0  0  0  0  0  0  0
   -3.5694   -1.8168    0.0870 C   0  0  0  0  0  0  0  0  0  0  0  0
   -0.2692    0.7188    1.9197 H   0  0  0  0  0  0  0  0  0  0  0  0
   -1.1626    0.7685   -1.6149 H   0  0  0  0  0  0  0  0  0  0  0  0
    0.7527   -1.3238    0.8112 H   0  0  0  0  0  0  0  0  0  0  0  0
    0.3761   -0.6818   -0.7919 H   0  0  0  0  0  0  0  0  0  0  0  0
    2.1112    0.8703    1.2736 H   0  0  0  0  0  0  0  0  0  0  0  0
    1.8749    1.2956   -0.4307 H   0  0  0  0  0  0  0  0  0  0  0  0
    3.8248   -2.2349    0.2476 H   0  0  0  0  0  0  0  0  0  0  0  0
   -2.1996   -0.4552    1.8473 H   0  0  0  0  0  0  0  0  0  0  0  0
   -4.4166   -1.2215    0.4597 H   0  0  0  0  0  0  0  0  0  0  0  0
   -3.9140   -2.3007   -0.8459 H   0  0  0  0  0  0  0  0  0  0  0  0
   -3.3785   -2.6223    0.8095 H   0  0  0  0  0  0  0  0  0  0  0  0
  1 10  1  0  0  0  0
  1 14  1  1  0  0  0
  2  3  2  0  0  0  0
  2  1  1  0  0  0  0
  4  2  1  0  0  0  0
  5  6  1  0  0  0  0
  5 16  1  0  0  0  0
  5  1  1  0  0  0  0
  6 18  1  0  0  0  0
  7  6  1  0  0  0  0
  7  9  1  0  0  0  0
  8  7  2  0  0  0  0
 10 21  1  0  0  0  0
 11 13  1  0  0  0  0
 11 10  1  0  0  0  0
 12 11  2  0  0  0  0
 13 22  1  0  0  0  0
 13 24  1  0  0  0  0
 15  4  1  0  0  0  0
 17  5  1  0  0  0  0
 19  6  1  0  0  0  0
 20  9  1  0  0  0  0
 23 13  1  0  0  0  0
M  END
