omegapdb_1xom_05.log
 OpenBabel10161801213D
Gaussian 16 # PM6 Opt
 50 52  0  0  1  0  0  0  0  0999 V2000
    6.2706   -0.5188    0.2497 O   0  0  0  0  0  0  0  0  0  0  0  0
    5.4613   -1.5466   -0.1754 C   0  0  0  0  0  0  0  0  0  0  0  0
    5.9496   -2.6191   -0.4420 O   0  0  0  0  0  0  0  0  0  0  0  0
    4.0073   -1.1240   -0.2355 C   0  0  1  0  0  0  0  0  0  0  0  0
    3.5071   -0.7580    1.1735 C   0  0  0  0  0  0  0  0  0  0  0  0
    2.0398   -0.3240    1.1305 C   0  0  0  0  0  0  0  0  0  0  0  0
    1.8031    0.8498    0.1406 C   0  0  2  0  0  0  0  0  0  0  0  0
    2.3743    0.5074   -1.2628 C   0  0  0  0  0  0  0  0  0  0  0  0
    3.8367    0.0605   -1.2032 C   0  0  0  0  0  0  0  0  0  0  0  0
    2.5271    2.0262    0.6643 C   0  0  0  0  0  0  0  0  0  0  0  0
    3.1132    2.9320    1.0761 N   0  0  0  0  0  0  0  0  0  0  0  0
    0.3108    1.1438    0.0068 C   0  0  0  0  0  0  0  0  0  0  0  0
   -0.2060    2.4358    0.1254 C   0  0  0  0  0  0  0  0  0  0  0  0
   -1.5774    2.6878   -0.0248 C   0  0  0  0  0  0  0  0  0  0  0  0
   -2.4489    1.6330   -0.2985 C   0  0  0  0  0  0  0  0  0  0  0  0
   -3.8107    1.7253   -0.4448 O   0  0  0  0  0  0  0  0  0  0  0  0
   -4.3939    3.0530   -0.4348 C   0  0  0  0  0  0  0  0  0  0  0  0
   -1.9288    0.3128   -0.4385 C   0  0  0  0  0  0  0  0  0  0  0  0
   -0.5669    0.0793   -0.2816 C   0  0  0  0  0  0  0  0  0  0  0  0
   -2.7629   -0.7109   -0.8456 O   0  0  0  0  0  0  0  0  0  0  0  0
   -3.2241   -1.6150    0.2174 C   0  0  0  0  0  0  0  0  0  0  0  0
   -4.3735   -0.9689    1.0039 C   0  0  0  0  0  0  0  0  0  0  0  0
   -5.4900   -2.0216    1.0603 C   0  0  0  0  0  0  0  0  0  0  0  0
   -5.2619   -2.9685   -0.1347 C   0  0  0  0  0  0  0  0  0  0  0  0
   -3.7941   -2.8078   -0.5666 C   0  0  0  0  0  0  0  0  0  0  0  0
    7.2297   -0.7798    0.2957 H   0  0  0  0  0  0  0  0  0  0  0  0
    3.4240   -2.0025   -0.6193 H   0  0  0  0  0  0  0  0  0  0  0  0
    4.1402    0.0528    1.5950 H   0  0  0  0  0  0  0  0  0  0  0  0
    3.6233   -1.6204    1.8585 H   0  0  0  0  0  0  0  0  0  0  0  0
    1.4042   -1.1842    0.8400 H   0  0  0  0  0  0  0  0  0  0  0  0
    1.7014   -0.0294    2.1437 H   0  0  0  0  0  0  0  0  0  0  0  0
    2.2746    1.3872   -1.9296 H   0  0  0  0  0  0  0  0  0  0  0  0
    1.7527   -0.2857   -1.7243 H   0  0  0  0  0  0  0  0  0  0  0  0
    4.1848   -0.2188   -2.2167 H   0  0  0  0  0  0  0  0  0  0  0  0
    4.4868    0.9023   -0.8796 H   0  0  0  0  0  0  0  0  0  0  0  0
    0.4465    3.2851    0.3377 H   0  0  0  0  0  0  0  0  0  0  0  0
   -1.9425    3.7063    0.0775 H   0  0  0  0  0  0  0  0  0  0  0  0
   -4.2526    3.5234    0.5420 H   0  0  0  0  0  0  0  0  0  0  0  0
   -5.4534    2.8273   -0.6160 H   0  0  0  0  0  0  0  0  0  0  0  0
   -3.9809    3.6587   -1.2464 H   0  0  0  0  0  0  0  0  0  0  0  0
   -0.1919   -0.9374   -0.4040 H   0  0  0  0  0  0  0  0  0  0  0  0
   -2.3554   -1.8760    0.8481 H   0  0  0  0  0  0  0  0  0  0  0  0
   -4.7134   -0.0570    0.4651 H   0  0  0  0  0  0  0  0  0  0  0  0
   -4.0624   -0.6384    2.0053 H   0  0  0  0  0  0  0  0  0  0  0  0
   -6.4867   -1.5531    1.0164 H   0  0  0  0  0  0  0  0  0  0  0  0
   -5.4496   -2.5808    2.0114 H   0  0  0  0  0  0  0  0  0  0  0  0
   -5.9369   -2.7043   -0.9683 H   0  0  0  0  0  0  0  0  0  0  0  0
   -5.4902   -4.0126    0.1330 H   0  0  0  0  0  0  0  0  0  0  0  0
   -3.2106   -3.7224   -0.3784 H   0  0  0  0  0  0  0  0  0  0  0  0
   -3.7173   -2.6067   -1.6549 H   0  0  0  0  0  0  0  0  0  0  0  0
  1 26  1  0  0  0  0
  2  1  1  0  0  0  0
  3  2  2  0  0  0  0
  4 27  1  6  0  0  0
  4  2  1  0  0  0  0
  4  5  1  0  0  0  0
  5 28  1  0  0  0  0
  5 29  1  0  0  0  0
  6  5  1  0  0  0  0
  6 31  1  0  0  0  0
  7 12  1  6  0  0  0
  7 10  1  0  0  0  0
  7  6  1  0  0  0  0
  8  9  1  0  0  0  0
  8  7  1  0  0  0  0
  9 35  1  0  0  0  0
  9  4  1  0  0  0  0
 10 11  3  0  0  0  0
 12 13  1  0  0  0  0
 13 36  1  0  0  0  0
 14 37  1  0  0  0  0
 14 13  2  0  0  0  0
 15 14  1  0  0  0  0
 16 17  1  0  0  0  0
 16 15  1  0  0  0  0
 17 38  1  0  0  0  0
 18 15  2  0  0  0  0
 18 19  1  0  0  0  0
 19 12  2  0  0  0  0
 20 18  1  0  0  0  0
 20 21  1  0  0  0  0
 21 42  1  0  0  0  0
 21 22  1  0  0  0  0
 22 23  1  0  0  0  0
 22 44  1  0  0  0  0
 23 46  1  0  0  0  0
 24 48  1  0  0  0  0
 24 23  1  0  0  0  0
 25 49  1  0  0  0  0
 25 24  1  0  0  0  0
 25 21  1  0  0  0  0
 30  6  1  0  0  0  0
 32  8  1  0  0  0  0
 33  8  1  0  0  0  0
 34  9  1  0  0  0  0
 39 17  1  0  0  0  0
 40 17  1  0  0  0  0
 41 19  1  0  0  0  0
 43 22  1  0  0  0  0
 45 23  1  0  0  0  0
 47 24  1  0  0  0  0
 50 25  1  0  0  0  0
M  END
