omegacsd_CEJTIU_00.log
 OpenBabel10161801213D
Gaussian 16 # PM6 Opt
 41 42  0  0  0  0  0  0  0  0999 V2000
    6.6264   -1.6493    0.1678 C   0  0  0  0  0  0  0  0  0  0  0  0
    6.1226   -0.2513    0.0534 N   0  0  0  0  0  0  0  0  0  0  0  0
    6.8660    0.6607    0.9696 C   0  0  0  0  0  0  0  0  0  0  0  0
    4.6981   -0.0995    0.0555 C   0  0  0  0  0  0  0  0  0  0  0  0
    4.1192    1.1685    0.2992 C   0  0  0  0  0  0  0  0  0  0  0  0
    2.7492    1.3640    0.1683 C   0  0  0  0  0  0  0  0  0  0  0  0
    1.9177    0.2903   -0.2078 C   0  0  0  0  0  0  0  0  0  0  0  0
    2.4761   -0.9737   -0.4543 C   0  0  0  0  0  0  0  0  0  0  0  0
    3.8488   -1.1637   -0.3207 C   0  0  0  0  0  0  0  0  0  0  0  0
    0.5110    0.5637   -0.3201 N   0  0  0  0  0  0  0  0  0  0  0  0
   -0.4430   -0.3886   -0.6520 C   0  0  0  0  0  0  0  0  0  0  0  0
   -0.2556   -1.5699   -0.8886 O   0  0  0  0  0  0  0  0  0  0  0  0
   -1.8224    0.0664   -0.7346 N   0  0  0  0  0  0  0  0  0  0  0  0
   -2.3165    1.3635   -0.5011 C   0  0  0  0  0  0  0  0  0  0  0  0
   -1.5681    2.2762   -0.1905 O   0  0  0  0  0  0  0  0  0  0  0  0
   -3.8054    1.5568   -0.6999 C   0  0  0  0  0  0  0  0  0  0  0  0
   -4.6442    0.4791   -0.0750 C   0  0  0  0  0  0  0  0  0  0  0  0
   -5.3297   -0.4404   -0.8817 C   0  0  0  0  0  0  0  0  0  0  0  0
   -6.1099   -1.4386   -0.2903 C   0  0  0  0  0  0  0  0  0  0  0  0
   -6.2067   -1.5244    1.1018 C   0  0  0  0  0  0  0  0  0  0  0  0
   -5.5219   -0.6068    1.9058 C   0  0  0  0  0  0  0  0  0  0  0  0
   -4.7419    0.3943    1.3223 C   0  0  0  0  0  0  0  0  0  0  0  0
    6.3504   -2.1509    1.1080 H   0  0  0  0  0  0  0  0  0  0  0  0
    6.2412   -2.2468   -0.6773 H   0  0  0  0  0  0  0  0  0  0  0  0
    7.7252   -1.6496    0.0808 H   0  0  0  0  0  0  0  0  0  0  0  0
    7.9494    0.5192    0.8253 H   0  0  0  0  0  0  0  0  0  0  0  0
    6.6322    0.5118    2.0349 H   0  0  0  0  0  0  0  0  0  0  0  0
    6.6439    1.7094    0.7045 H   0  0  0  0  0  0  0  0  0  0  0  0
    4.7472    2.0134    0.5790 H   0  0  0  0  0  0  0  0  0  0  0  0
    2.3281    2.3510    0.3578 H   0  0  0  0  0  0  0  0  0  0  0  0
    1.8386   -1.8151   -0.7498 H   0  0  0  0  0  0  0  0  0  0  0  0
    4.2570   -2.1525   -0.5247 H   0  0  0  0  0  0  0  0  0  0  0  0
    0.2117    1.5436   -0.1371 H   0  0  0  0  0  0  0  0  0  0  0  0
   -2.4843   -0.6954   -0.9565 H   0  0  0  0  0  0  0  0  0  0  0  0
   -4.0867    2.5519   -0.2758 H   0  0  0  0  0  0  0  0  0  0  0  0
   -4.0118    1.6567   -1.7896 H   0  0  0  0  0  0  0  0  0  0  0  0
   -5.2635   -0.3797   -1.9663 H   0  0  0  0  0  0  0  0  0  0  0  0
   -6.6428   -2.1520   -0.9182 H   0  0  0  0  0  0  0  0  0  0  0  0
   -6.8132   -2.3041    1.5596 H   0  0  0  0  0  0  0  0  0  0  0  0
   -5.5956   -0.6729    2.9911 H   0  0  0  0  0  0  0  0  0  0  0  0
   -4.2097    1.1062    1.9522 H   0  0  0  0  0  0  0  0  0  0  0  0
  1 23  1  0  0  0  0
  2  4  1  0  0  0  0
  2  1  1  0  0  0  0
  2  3  1  0  0  0  0
  3 27  1  0  0  0  0
  4  5  2  0  0  0  0
  5 29  1  0  0  0  0
  6  5  1  0  0  0  0
  6 30  1  0  0  0  0
  7  6  2  0  0  0  0
  8  9  2  0  0  0  0
  8  7  1  0  0  0  0
  9  4  1  0  0  0  0
 10  7  1  0  0  0  0
 10 33  1  0  0  0  0
 11 10  1  0  0  0  0
 12 11  2  0  0  0  0
 13 11  1  0  0  0  0
 13 14  1  0  0  0  0
 14 15  2  0  0  0  0
 16 14  1  0  0  0  0
 16 35  1  0  0  0  0
 16 17  1  0  0  0  0
 17 22  2  0  0  0  0
 18 19  2  0  0  0  0
 18 17  1  0  0  0  0
 19 20  1  0  0  0  0
 20 39  1  0  0  0  0
 20 21  2  0  0  0  0
 21 40  1  0  0  0  0
 22 21  1  0  0  0  0
 22 41  1  0  0  0  0
 24  1  1  0  0  0  0
 25  1  1  0  0  0  0
 26  3  1  0  0  0  0
 28  3  1  0  0  0  0
 31  8  1  0  0  0  0
 32  9  1  0  0  0  0
 34 13  1  0  0  0  0
 36 16  1  0  0  0  0
 37 18  1  0  0  0  0
 38 19  1  0  0  0  0
M  END
