omegapdb_1v2k_15.log
 OpenBabel10161801213D
Gaussian 16 # PM6 Opt Geom=check
 61 65  0  0  0  0  0  0  0  0999 V2000
    0.1245    3.7492    0.2153 N   0  0  0  0  0  0  0  0  0  0  0  0
   -0.3899    3.4715   -1.0177 C   0  0  0  0  0  0  0  0  0  0  0  0
   -1.7113    3.0802   -1.2282 C   0  0  0  0  0  0  0  0  0  0  0  0
   -2.5883    2.9673   -0.1193 C   0  0  0  0  0  0  0  0  0  0  0  0
   -2.0638    3.2793    1.1585 C   0  0  0  0  0  0  0  0  0  0  0  0
   -0.7253    3.6645    1.2737 C   0  0  0  0  0  0  0  0  0  0  0  0
   -3.9628    2.6676   -0.3052 N   0  0  0  0  0  0  0  0  0  0  0  0
   -4.7353    2.1771    0.8784 C   0  0  0  0  0  0  0  0  0  0  0  0
   -4.7321    0.6395    1.0249 C   0  0  0  0  0  0  0  0  0  0  0  0
   -3.7144   -0.0063    0.0751 C   0  0  0  0  0  0  0  0  0  0  0  0
   -3.9760    0.3817   -1.3908 C   0  0  0  0  0  0  0  0  0  0  0  0
   -4.3289    1.8746   -1.5211 C   0  0  0  0  0  0  0  0  0  0  0  0
   -3.7358   -1.5266    0.2109 C   0  0  0  0  0  0  0  0  0  0  0  0
   -4.4894   -2.2521   -0.4168 O   0  0  0  0  0  0  0  0  0  0  0  0
   -2.8940   -2.1200    1.1906 N   0  0  0  0  0  0  0  0  0  0  0  0
   -2.6143   -3.5729    1.0569 C   0  0  0  0  0  0  0  0  0  0  0  0
   -1.2835   -3.8533    0.3132 C   0  0  0  0  0  0  0  0  0  0  0  0
   -0.2704   -2.7678    0.4648 N   0  0  0  0  0  0  0  0  0  0  0  0
   -0.4373   -2.0389    1.7456 C   0  0  0  0  0  0  0  0  0  0  0  0
   -1.8205   -1.3583    1.8818 C   0  0  0  0  0  0  0  0  0  0  0  0
   -0.0436   -1.7694   -0.9410 S   0  0  0  0  0  0  0  0  0  0  0  0
    0.1078   -2.6851   -2.0506 O   0  0  0  0  0  0  0  0  0  0  0  0
   -1.0998   -0.7659   -0.9941 O   0  0  0  0  0  0  0  0  0  0  0  0
    1.4446   -0.9598   -0.5939 C   0  0  0  0  0  0  0  0  0  0  0  0
    2.6468   -1.6225   -0.6278 C   0  0  0  0  0  0  0  0  0  0  0  0
    3.8618   -0.9238   -0.3477 C   0  0  0  0  0  0  0  0  0  0  0  0
    3.8085    0.4645   -0.0424 C   0  0  0  0  0  0  0  0  0  0  0  0
    2.5424    1.1299   -0.0267 C   0  0  0  0  0  0  0  0  0  0  0  0
    1.3927    0.4335   -0.2982 C   0  0  0  0  0  0  0  0  0  0  0  0
    5.0244    1.1651    0.2399 C   0  0  0  0  0  0  0  0  0  0  0  0
    6.2106    0.4790    0.2065 C   0  0  0  0  0  0  0  0  0  0  0  0
    6.2861   -0.9104   -0.1004 C   0  0  0  0  0  0  0  0  0  0  0  0
    5.1287   -1.5934   -0.3723 C   0  0  0  0  0  0  0  0  0  0  0  0
    7.6863    1.3043    0.5451 Cl  0  0  0  0  0  0  0  0  0  0  0  0
    0.3097    3.5668   -1.8569 H   0  0  0  0  0  0  0  0  0  0  0  0
   -2.0595    2.8566   -2.2346 H   0  0  0  0  0  0  0  0  0  0  0  0
   -2.6950    3.2343    2.0424 H   0  0  0  0  0  0  0  0  0  0  0  0
   -0.2959    3.9131    2.2513 H   0  0  0  0  0  0  0  0  0  0  0  0
   -4.3559    2.6586    1.8065 H   0  0  0  0  0  0  0  0  0  0  0  0
   -5.7792    2.5431    0.7463 H   0  0  0  0  0  0  0  0  0  0  0  0
   -4.5154    0.3553    2.0706 H   0  0  0  0  0  0  0  0  0  0  0  0
   -5.7433    0.2397    0.8059 H   0  0  0  0  0  0  0  0  0  0  0  0
   -2.6757    0.3627    0.3310 H   0  0  0  0  0  0  0  0  0  0  0  0
   -4.7870   -0.2436   -1.8161 H   0  0  0  0  0  0  0  0  0  0  0  0
   -3.0629    0.1378   -1.9791 H   0  0  0  0  0  0  0  0  0  0  0  0
   -5.4241    2.0027   -1.6734 H   0  0  0  0  0  0  0  0  0  0  0  0
   -3.8368    2.3180   -2.4142 H   0  0  0  0  0  0  0  0  0  0  0  0
   -3.4634   -4.0565    0.5134 H   0  0  0  0  0  0  0  0  0  0  0  0
   -2.5907   -4.0138    2.0767 H   0  0  0  0  0  0  0  0  0  0  0  0
   -1.4755   -4.0531   -0.7675 H   0  0  0  0  0  0  0  0  0  0  0  0
   -0.8260   -4.7867    0.7161 H   0  0  0  0  0  0  0  0  0  0  0  0
   -0.2910   -2.7722    2.5739 H   0  0  0  0  0  0  0  0  0  0  0  0
    0.3757   -1.2893    1.8625 H   0  0  0  0  0  0  0  0  0  0  0  0
   -2.0980   -1.2735    2.9558 H   0  0  0  0  0  0  0  0  0  0  0  0
   -1.7680   -0.3158    1.4720 H   0  0  0  0  0  0  0  0  0  0  0  0
    2.6996   -2.6897   -0.8713 H   0  0  0  0  0  0  0  0  0  0  0  0
    2.5011    2.2009    0.1975 H   0  0  0  0  0  0  0  0  0  0  0  0
    0.4202    0.9448   -0.3023 H   0  0  0  0  0  0  0  0  0  0  0  0
    4.9851    2.2302    0.4736 H   0  0  0  0  0  0  0  0  0  0  0  0
    7.2589   -1.4031   -0.1153 H   0  0  0  0  0  0  0  0  0  0  0  0
    5.1545   -2.6575   -0.6135 H   0  0  0  0  0  0  0  0  0  0  0  0
  1  6  2  0  0  0  0
  2  1  1  0  0  0  0
  3  2  2  0  0  0  0
  3  4  1  0  0  0  0
  4  5  2  0  0  0  0
  5  6  1  0  0  0  0
  5 37  1  0  0  0  0
  6 38  1  0  0  0  0
  7  4  1  0  0  0  0
  7  8  1  0  0  0  0
  8  9  1  0  0  0  0
  8 39  1  0  0  0  0
  9 41  1  0  0  0  0
 10 13  1  0  0  0  0
 10 43  1  0  0  0  0
 10  9  1  0  0  0  0
 11 10  1  0  0  0  0
 12 11  1  0  0  0  0
 12  7  1  0  0  0  0
 13 15  1  0  0  0  0
 14 13  2  0  0  0  0
 15 20  1  0  0  0  0
 16 15  1  0  0  0  0
 16 49  1  0  0  0  0
 17 18  1  0  0  0  0
 17 51  1  0  0  0  0
 17 16  1  0  0  0  0
 18 19  1  0  0  0  0
 19 53  1  0  0  0  0
 19 20  1  0  0  0  0
 19 52  1  0  0  0  0
 20 54  1  0  0  0  0
 21 24  1  0  0  0  0
 21 18  1  0  0  0  0
 22 21  2  0  0  0  0
 23 21  2  0  0  0  0
 24 29  1  0  0  0  0
 25 24  2  0  0  0  0
 25 26  1  0  0  0  0
 26 27  1  0  0  0  0
 27 28  1  0  0  0  0
 27 30  2  0  0  0  0
 28 57  1  0  0  0  0
 29 28  2  0  0  0  0
 30 59  1  0  0  0  0
 31 30  1  0  0  0  0
 31 34  1  0  0  0  0
 32 31  2  0  0  0  0
 33 26  2  0  0  0  0
 33 32  1  0  0  0  0
 35  2  1  0  0  0  0
 36  3  1  0  0  0  0
 40  8  1  0  0  0  0
 42  9  1  0  0  0  0
 44 11  1  0  0  0  0
 45 11  1  0  0  0  0
 46 12  1  0  0  0  0
 47 12  1  0  0  0  0
 48 16  1  0  0  0  0
 50 17  1  0  0  0  0
 55 20  1  0  0  0  0
 56 25  1  0  0  0  0
 58 29  1  0  0  0  0
 60 32  1  0  0  0  0
 61 33  1  0  0  0  0
M  END
