omegapdb_2byh_01.log
 OpenBabel10161801213D
Gaussian 16 # PM6 Opt
 40 42  0  0  0  0  0  0  0  0999 V2000
   -6.1122    1.3194   -1.2772 O   0  0  0  0  0  0  0  0  0  0  0  0
   -5.7975    0.4567   -0.4804 C   0  0  0  0  0  0  0  0  0  0  0  0
   -6.8170   -0.1369    0.4514 C   0  0  0  0  0  0  0  0  0  0  0  0
   -4.3975   -0.0439   -0.4009 C   0  0  0  0  0  0  0  0  0  0  0  0
   -3.4677    0.4573   -1.3317 C   0  0  0  0  0  0  0  0  0  0  0  0
   -2.1427    0.0373   -1.3159 C   0  0  0  0  0  0  0  0  0  0  0  0
   -1.7252   -0.9053   -0.3474 C   0  0  0  0  0  0  0  0  0  0  0  0
   -2.6473   -1.4133    0.5868 C   0  0  0  0  0  0  0  0  0  0  0  0
   -3.9703   -0.9808    0.5520 C   0  0  0  0  0  0  0  0  0  0  0  0
   -0.3551   -1.2925   -0.3622 N   0  0  0  0  0  0  0  0  0  0  0  0
    0.2686   -2.2256    0.5126 C   0  0  0  0  0  0  0  0  0  0  0  0
   -0.3529   -2.8209    1.3688 O   0  0  0  0  0  0  0  0  0  0  0  0
    1.7038   -2.3905    0.2556 C   0  0  0  0  0  0  0  0  0  0  0  0
    2.3604   -3.6686    0.2253 C   0  0  0  0  0  0  0  0  0  0  0  0
    3.6796   -3.5050   -0.0444 N   0  0  0  0  0  0  0  0  0  0  0  0
    3.8872   -2.1611   -0.1604 N   0  0  0  0  0  0  0  0  0  0  0  0
    2.7086   -1.4321    0.0128 C   0  0  0  0  0  0  0  0  0  0  0  0
    2.6613    0.0198   -0.0230 C   0  0  0  0  0  0  0  0  0  0  0  0
    1.7902    0.7208    0.8320 C   0  0  0  0  0  0  0  0  0  0  0  0
    1.7156    2.1088    0.7839 C   0  0  0  0  0  0  0  0  0  0  0  0
    0.6487    2.9528    1.8180 Cl  0  0  0  0  0  0  0  0  0  0  0  0
    2.5228    2.8391   -0.1203 C   0  0  0  0  0  0  0  0  0  0  0  0
    2.4972    4.1881   -0.2306 O   0  0  0  0  0  0  0  0  0  0  0  0
    3.4203    2.1746   -0.9675 C   0  0  0  0  0  0  0  0  0  0  0  0
    3.4829    0.7801   -0.8935 C   0  0  0  0  0  0  0  0  0  0  0  0
    4.3641    0.0660   -1.6589 O   0  0  0  0  0  0  0  0  0  0  0  0
   -6.5726    0.0583    1.5030 H   0  0  0  0  0  0  0  0  0  0  0  0
   -7.8115    0.2976    0.2647 H   0  0  0  0  0  0  0  0  0  0  0  0
   -6.9085   -1.2225    0.3212 H   0  0  0  0  0  0  0  0  0  0  0  0
   -3.8062    1.1893   -2.0739 H   0  0  0  0  0  0  0  0  0  0  0  0
   -1.4424    0.4348   -2.0457 H   0  0  0  0  0  0  0  0  0  0  0  0
   -2.3282   -2.1483    1.3347 H   0  0  0  0  0  0  0  0  0  0  0  0
   -4.6736   -1.3839    1.2831 H   0  0  0  0  0  0  0  0  0  0  0  0
    0.2199   -0.8779   -1.1035 H   0  0  0  0  0  0  0  0  0  0  0  0
    1.9017   -4.6337    0.3902 H   0  0  0  0  0  0  0  0  0  0  0  0
    4.8005   -1.7953   -0.4078 H   0  0  0  0  0  0  0  0  0  0  0  0
    1.1638    0.1676    1.5437 H   0  0  0  0  0  0  0  0  0  0  0  0
    1.8435    4.6297    0.3865 H   0  0  0  0  0  0  0  0  0  0  0  0
    4.0413    2.7525   -1.6485 H   0  0  0  0  0  0  0  0  0  0  0  0
    4.8752    0.6412   -2.2904 H   0  0  0  0  0  0  0  0  0  0  0  0
  1  2  2  0  0  0  0
  2  4  1  0  0  0  0
  2  3  1  0  0  0  0
  3 27  1  0  0  0  0
  4  9  2  0  0  0  0
  5  6  2  0  0  0  0
  5  4  1  0  0  0  0
  6  7  1  0  0  0  0
  7  8  2  0  0  0  0
  8 32  1  0  0  0  0
  9  8  1  0  0  0  0
  9 33  1  0  0  0  0
 10  7  1  0  0  0  0
 10 11  1  0  0  0  0
 11 12  2  0  0  0  0
 13 11  1  0  0  0  0
 14 13  1  0  0  0  0
 14 35  1  0  0  0  0
 15 14  2  0  0  0  0
 16 15  1  0  0  0  0
 16 17  1  0  0  0  0
 17 13  2  0  0  0  0
 18 17  1  0  0  0  0
 18 19  2  0  0  0  0
 19 37  1  0  0  0  0
 20 19  1  0  0  0  0
 20 21  1  0  0  0  0
 22 20  2  0  0  0  0
 23 22  1  0  0  0  0
 23 38  1  0  0  0  0
 24 25  2  0  0  0  0
 24 22  1  0  0  0  0
 25 18  1  0  0  0  0
 26 25  1  0  0  0  0
 28  3  1  0  0  0  0
 29  3  1  0  0  0  0
 30  5  1  0  0  0  0
 31  6  1  0  0  0  0
 34 10  1  0  0  0  0
 36 16  1  0  0  0  0
 39 24  1  0  0  0  0
 40 26  1  0  0  0  0
M  END
