omegapdb_2f7p_07.log
 OpenBabel10161801213D
Gaussian 16 # PM6 Opt
 34 35  0  0  1  0  0  0  0  0999 V2000
   -0.9653   -0.0530   -0.8143 C   0  0  1  0  0  0  0  0  0  0  0  0
    0.4393   -0.4315   -0.5808 N   0  0  0  0  0  0  0  0  0  0  0  0
    1.4020    0.7102   -0.6579 C   0  0  0  0  0  0  0  0  0  0  0  0
    2.7729    0.2459   -0.2277 C   0  0  0  0  0  0  0  0  0  0  0  0
    3.4902    0.9762    0.7308 C   0  0  0  0  0  0  0  0  0  0  0  0
    4.7694    0.5605    1.1122 C   0  0  0  0  0  0  0  0  0  0  0  0
    5.3353   -0.5851    0.5444 C   0  0  0  0  0  0  0  0  0  0  0  0
    4.6193   -1.3160   -0.4096 C   0  0  0  0  0  0  0  0  0  0  0  0
    3.3428   -0.9024   -0.7978 C   0  0  0  0  0  0  0  0  0  0  0  0
   -1.8596   -1.3291   -0.7487 C   0  0  1  0  0  0  0  0  0  0  0  0
   -1.5446   -2.1868    0.3515 O   0  0  0  0  0  0  0  0  0  0  0  0
   -3.2913   -0.7845   -0.4973 C   0  0  1  0  0  0  0  0  0  0  0  0
   -4.0871   -1.7124    0.2328 O   0  0  0  0  0  0  0  0  0  0  0  0
   -3.0778    0.4696    0.4066 C   0  0  1  0  0  0  0  0  0  0  0  0
   -3.1364    0.0635    1.7832 O   0  0  0  0  0  0  0  0  0  0  0  0
   -1.6268    0.9312    0.1937 C   0  0  2  0  0  0  0  0  0  0  0  0
   -1.5877    2.5899   -0.5362 S   0  0  0  0  0  0  0  0  0  0  0  0
   -1.0301    0.3627   -1.8584 H   0  0  0  0  0  0  0  0  0  0  0  0
    0.5488   -0.9419    0.3036 H   0  0  0  0  0  0  0  0  0  0  0  0
    1.4441    1.0494   -1.7214 H   0  0  0  0  0  0  0  0  0  0  0  0
    1.0812    1.5966   -0.0654 H   0  0  0  0  0  0  0  0  0  0  0  0
    3.0577    1.8684    1.1788 H   0  0  0  0  0  0  0  0  0  0  0  0
    5.3250    1.1309    1.8544 H   0  0  0  0  0  0  0  0  0  0  0  0
    6.3304   -0.9075    0.8438 H   0  0  0  0  0  0  0  0  0  0  0  0
    5.0574   -2.2092   -0.8520 H   0  0  0  0  0  0  0  0  0  0  0  0
    2.7799   -1.4721   -1.5389 H   0  0  0  0  0  0  0  0  0  0  0  0
   -1.7473   -1.9918   -1.6289 H   0  0  0  0  0  0  0  0  0  0  0  0
   -1.5598   -1.6716    1.2032 H   0  0  0  0  0  0  0  0  0  0  0  0
   -3.8597   -0.5605   -1.4204 H   0  0  0  0  0  0  0  0  0  0  0  0
   -3.5179   -2.4760    0.5494 H   0  0  0  0  0  0  0  0  0  0  0  0
   -3.8502    1.2466    0.2440 H   0  0  0  0  0  0  0  0  0  0  0  0
   -3.9275   -0.5302    1.9137 H   0  0  0  0  0  0  0  0  0  0  0  0
   -1.0925    0.9259    1.1743 H   0  0  0  0  0  0  0  0  0  0  0  0
   -2.0332    3.3072    0.5191 H   0  0  0  0  0  0  0  0  0  0  0  0
  1 18  1  6  0  0  0
  1 10  1  0  0  0  0
  1  2  1  0  0  0  0
  1 16  1  0  0  0  0
  2 19  1  0  0  0  0
  3  2  1  0  0  0  0
  3  4  1  0  0  0  0
  3 21  1  0  0  0  0
  4  5  2  0  0  0  0
  5  6  1  0  0  0  0
  5 22  1  0  0  0  0
  6 23  1  0  0  0  0
  7 24  1  0  0  0  0
  7  6  2  0  0  0  0
  8  7  1  0  0  0  0
  9  8  2  0  0  0  0
  9  4  1  0  0  0  0
 10 27  1  6  0  0  0
 10 12  1  0  0  0  0
 10 11  1  0  0  0  0
 11 28  1  0  0  0  0
 12 29  1  6  0  0  0
 12 13  1  0  0  0  0
 12 14  1  0  0  0  0
 13 30  1  0  0  0  0
 14 31  1  6  0  0  0
 14 15  1  0  0  0  0
 15 32  1  0  0  0  0
 16 14  1  0  0  0  0
 16 33  1  1  0  0  0
 17 16  1  0  0  0  0
 17 34  1  0  0  0  0
 20  3  1  0  0  0  0
 25  8  1  0  0  0  0
 26  9  1  0  0  0  0
M  END
