omegacsd_CUHNEY10_03.log
 OpenBabel10161801213D
Gaussian 16 # PM6 Opt
 44 47  0  0  1  0  0  0  0  0999 V2000
    4.3399    2.4537   -0.5902 Cl  0  0  0  0  0  0  0  0  0  0  0  0
    2.6564    2.1498   -0.4942 C   0  0  0  0  0  0  0  0  0  0  0  0
    2.1163    1.0225   -1.1439 C   0  0  0  0  0  0  0  0  0  0  0  0
    0.7981    0.7356   -1.0731 N   0  0  0  0  0  0  0  0  0  0  0  0
   -0.0131    1.5582   -0.3270 C   0  0  0  0  0  0  0  0  0  0  0  0
   -1.3726    1.1419   -0.2507 N   0  0  0  0  0  0  0  0  0  0  0  0
   -2.4107    1.8040    0.5005 C   0  0  0  0  0  0  0  0  0  0  0  0
   -2.2793    2.8458    1.0799 O   0  0  0  0  0  0  0  0  0  0  0  0
   -3.6137    0.9127    0.3336 C   0  0  0  0  0  0  0  0  0  0  0  0
   -4.8502    1.1227    0.8042 N   0  0  0  0  0  0  0  0  0  0  0  0
   -5.7603    0.1496    0.4959 C   0  0  0  0  0  0  0  0  0  0  0  0
   -5.4208   -0.9850   -0.2701 C   0  0  0  0  0  0  0  0  0  0  0  0
   -4.1543   -1.1940   -0.7469 N   0  0  0  0  0  0  0  0  0  0  0  0
   -3.2626   -0.2453   -0.4326 C   0  0  0  0  0  0  0  0  0  0  0  0
   -1.7884   -0.1977   -0.8081 C   0  0  2  0  0  0  0  0  0  0  0  0
   -1.1075   -1.1878   -0.0236 O   0  0  0  0  0  0  0  0  0  0  0  0
   -0.2085   -2.0239   -0.7342 C   0  0  0  0  0  0  0  0  0  0  0  0
   -0.2924   -2.1551   -1.9318 O   0  0  0  0  0  0  0  0  0  0  0  0
    0.5666   -2.7703    0.1712 N   0  0  0  0  0  0  0  0  0  0  0  0
    1.8116   -3.3614   -0.4189 C   0  0  0  0  0  0  0  0  0  0  0  0
    3.0971   -2.8862    0.2906 C   0  0  0  0  0  0  0  0  0  0  0  0
    2.9727   -1.4338    0.6322 N   0  0  0  0  0  0  0  0  0  0  0  0
    1.8871   -1.1979    1.6424 C   0  0  0  0  0  0  0  0  0  0  0  0
    0.7560   -2.2440    1.5489 C   0  0  0  0  0  0  0  0  0  0  0  0
    4.2722   -0.8893    1.1233 C   0  0  0  0  0  0  0  0  0  0  0  0
    0.4656    2.7177    0.3207 C   0  0  0  0  0  0  0  0  0  0  0  0
    1.8256    3.0112    0.2270 C   0  0  0  0  0  0  0  0  0  0  0  0
    2.7428    0.3208   -1.7143 H   0  0  0  0  0  0  0  0  0  0  0  0
   -6.7773    0.3051    0.8777 H   0  0  0  0  0  0  0  0  0  0  0  0
   -6.1606   -1.7565   -0.5209 H   0  0  0  0  0  0  0  0  0  0  0  0
   -1.5560   -0.2996   -1.9001 H   0  0  0  0  0  0  0  0  0  0  0  0
    1.8650   -3.1266   -1.5093 H   0  0  0  0  0  0  0  0  0  0  0  0
    1.7116   -4.4668   -0.3286 H   0  0  0  0  0  0  0  0  0  0  0  0
    3.3081   -3.5266    1.1734 H   0  0  0  0  0  0  0  0  0  0  0  0
    3.9568   -3.0091   -0.4046 H   0  0  0  0  0  0  0  0  0  0  0  0
    2.2578   -1.1626    2.6885 H   0  0  0  0  0  0  0  0  0  0  0  0
    1.4816   -0.1852    1.4119 H   0  0  0  0  0  0  0  0  0  0  0  0
   -0.2022   -1.8035    1.9117 H   0  0  0  0  0  0  0  0  0  0  0  0
    0.9745   -3.1207    2.2000 H   0  0  0  0  0  0  0  0  0  0  0  0
    4.1612    0.1971    1.2882 H   0  0  0  0  0  0  0  0  0  0  0  0
    5.0349   -1.0101    0.3365 H   0  0  0  0  0  0  0  0  0  0  0  0
    4.6532   -1.3455    2.0481 H   0  0  0  0  0  0  0  0  0  0  0  0
   -0.2101    3.3707    0.8825 H   0  0  0  0  0  0  0  0  0  0  0  0
    2.2342    3.8983    0.7157 H   0  0  0  0  0  0  0  0  0  0  0  0
  1  2  1  0  0  0  0
  2 27  2  0  0  0  0
  3  4  2  0  0  0  0
  3  2  1  0  0  0  0
  4  5  1  0  0  0  0
  5  6  1  0  0  0  0
  5 26  2  0  0  0  0
  6  7  1  0  0  0  0
  7  8  2  0  0  0  0
  9  7  1  0  0  0  0
  9 10  2  0  0  0  0
 11 10  1  0  0  0  0
 11 29  1  0  0  0  0
 12 11  2  0  0  0  0
 13 14  2  0  0  0  0
 13 12  1  0  0  0  0
 14  9  1  0  0  0  0
 15 31  1  6  0  0  0
 15 14  1  0  0  0  0
 15  6  1  0  0  0  0
 15 16  1  0  0  0  0
 17 16  1  0  0  0  0
 17 19  1  0  0  0  0
 18 17  2  0  0  0  0
 19 24  1  0  0  0  0
 20 33  1  0  0  0  0
 20 19  1  0  0  0  0
 20 21  1  0  0  0  0
 21 22  1  0  0  0  0
 21 34  1  0  0  0  0
 22 25  1  0  0  0  0
 22 23  1  0  0  0  0
 23 36  1  0  0  0  0
 24 23  1  0  0  0  0
 24 38  1  0  0  0  0
 24 39  1  0  0  0  0
 25 40  1  0  0  0  0
 25 42  1  0  0  0  0
 26 43  1  0  0  0  0
 27 26  1  0  0  0  0
 27 44  1  0  0  0  0
 28  3  1  0  0  0  0
 30 12  1  0  0  0  0
 32 20  1  0  0  0  0
 35 21  1  0  0  0  0
 37 23  1  0  0  0  0
 41 25  1  0  0  0  0
M  END
