omegacsd_GALSEM_04.log
 OpenBabel10161801213D
Gaussian 16 # PM6 Opt
 39 40  0  0  0  0  0  0  0  0999 V2000
   -2.5287    0.1172    1.4033 S   0  0  0  0  0  0  0  0  0  0  0  0
   -1.3766   -0.4387    2.1342 O   0  0  0  0  0  0  0  0  0  0  0  0
   -3.6031    0.7065    2.1486 O   0  0  0  0  0  0  0  0  0  0  0  0
   -3.1221   -1.3435    0.6518 N   0  0  0  0  0  0  0  0  0  0  0  0
   -4.1531   -1.3583   -0.3081 C   0  0  0  0  0  0  0  0  0  0  0  0
   -4.5854   -0.2916   -0.7051 O   0  0  0  0  0  0  0  0  0  0  0  0
   -4.6462   -2.7092   -0.7760 C   0  0  0  0  0  0  0  0  0  0  0  0
   -3.6188   -3.4056   -1.6581 C   0  0  0  0  0  0  0  0  0  0  0  0
   -1.9673    1.1197    0.1662 C   0  0  0  0  0  0  0  0  0  0  0  0
   -0.5983    1.2865   -0.1704 C   0  0  0  0  0  0  0  0  0  0  0  0
    0.3885    0.6415    0.5515 N   0  0  0  0  0  0  0  0  0  0  0  0
    1.8003    0.8355    0.3484 C   0  0  0  0  0  0  0  0  0  0  0  0
    2.6019   -0.3062    0.1660 C   0  0  0  0  0  0  0  0  0  0  0  0
    3.9828   -0.1459    0.0210 C   0  0  0  0  0  0  0  0  0  0  0  0
    4.5638    1.1299    0.0542 C   0  0  0  0  0  0  0  0  0  0  0  0
    3.7542    2.2549    0.2405 C   0  0  0  0  0  0  0  0  0  0  0  0
    2.3738    2.1183    0.3924 C   0  0  0  0  0  0  0  0  0  0  0  0
    4.8824   -1.3395   -0.1799 C   0  0  0  0  0  0  0  0  0  0  0  0
    4.2860   -2.5420   -0.1956 F   0  0  0  0  0  0  0  0  0  0  0  0
    5.5698   -1.3132   -1.3352 F   0  0  0  0  0  0  0  0  0  0  0  0
    5.8344   -1.4707    0.7596 F   0  0  0  0  0  0  0  0  0  0  0  0
   -0.2713    2.1275   -1.2788 C   0  0  0  0  0  0  0  0  0  0  0  0
   -1.2844    2.7954   -1.9421 C   0  0  0  0  0  0  0  0  0  0  0  0
   -2.6105    2.6867   -1.5870 N   0  0  0  0  0  0  0  0  0  0  0  0
   -2.9269    1.8661   -0.5751 C   0  0  0  0  0  0  0  0  0  0  0  0
   -2.7402   -2.2421    0.9787 H   0  0  0  0  0  0  0  0  0  0  0  0
   -4.9240   -3.3468    0.0884 H   0  0  0  0  0  0  0  0  0  0  0  0
   -5.5928   -2.5537   -1.3443 H   0  0  0  0  0  0  0  0  0  0  0  0
   -3.3513   -2.7903   -2.5287 H   0  0  0  0  0  0  0  0  0  0  0  0
   -4.0157   -4.3538   -2.0454 H   0  0  0  0  0  0  0  0  0  0  0  0
   -2.6925   -3.6364   -1.1193 H   0  0  0  0  0  0  0  0  0  0  0  0
    0.1314   -0.0056    1.3514 H   0  0  0  0  0  0  0  0  0  0  0  0
    2.1368   -1.2943    0.1407 H   0  0  0  0  0  0  0  0  0  0  0  0
    5.6428    1.2538   -0.0607 H   0  0  0  0  0  0  0  0  0  0  0  0
    4.2070    3.2478    0.2742 H   0  0  0  0  0  0  0  0  0  0  0  0
    1.7466    2.9972    0.5551 H   0  0  0  0  0  0  0  0  0  0  0  0
    0.7589    2.2269   -1.6109 H   0  0  0  0  0  0  0  0  0  0  0  0
   -1.0810    3.4564   -2.7954 H   0  0  0  0  0  0  0  0  0  0  0  0
   -4.0072    1.7814   -0.3332 H   0  0  0  0  0  0  0  0  0  0  0  0
  1  2  2  0  0  0  0
  1  3  2  0  0  0  0
  4 26  1  0  0  0  0
  4  1  1  0  0  0  0
  5  4  1  0  0  0  0
  6  5  2  0  0  0  0
  7  5  1  0  0  0  0
  7 27  1  0  0  0  0
  8 31  1  0  0  0  0
  8  7  1  0  0  0  0
  9  1  1  0  0  0  0
 10  9  1  0  0  0  0
 10 11  1  0  0  0  0
 11 32  1  0  0  0  0
 12 17  1  0  0  0  0
 12 11  1  0  0  0  0
 13 12  2  0  0  0  0
 14 15  2  0  0  0  0
 14 13  1  0  0  0  0
 15 16  1  0  0  0  0
 16 35  1  0  0  0  0
 16 17  2  0  0  0  0
 17 36  1  0  0  0  0
 18 14  1  0  0  0  0
 18 21  1  0  0  0  0
 19 18  1  0  0  0  0
 20 18  1  0  0  0  0
 22 10  2  0  0  0  0
 23 24  2  0  0  0  0
 23 22  1  0  0  0  0
 24 25  1  0  0  0  0
 25 39  1  0  0  0  0
 25  9  2  0  0  0  0
 28  7  1  0  0  0  0
 29  8  1  0  0  0  0
 30  8  1  0  0  0  0
 33 13  1  0  0  0  0
 34 15  1  0  0  0  0
 37 22  1  0  0  0  0
 38 23  1  0  0  0  0
M  END
