omegapdb_1gs5_08.log
 OpenBabel10161801213D
Gaussian 16 # PM6 Opt
 24 23  0  0  1  0  0  0  0  0999 V2000
    1.0894   -0.0899    0.2950 C   0  0  2  0  0  0  0  0  0  0  0  0
    2.5479   -0.0073   -0.1601 C   0  0  0  0  0  0  0  0  0  0  0  0
    3.0156    0.4887   -1.1546 O   0  0  0  0  0  0  0  0  0  0  0  0
    3.3472   -0.6238    0.7664 O   0  0  0  0  0  0  0  0  0  0  0  0
    0.5355   -1.4927   -0.0312 C   0  0  0  0  0  0  0  0  0  0  0  0
   -0.8115   -1.7464    0.6489 C   0  0  0  0  0  0  0  0  0  0  0  0
   -1.9600   -1.3199   -0.2369 C   0  0  0  0  0  0  0  0  0  0  0  0
   -2.2075   -1.7275   -1.3439 O   0  0  0  0  0  0  0  0  0  0  0  0
   -2.8137   -0.3798    0.2841 O   0  0  0  0  0  0  0  0  0  0  0  0
    0.3553    0.9974   -0.3820 N   0  0  0  0  0  0  0  0  0  0  0  0
   -0.6882    1.6618    0.2711 C   0  0  0  0  0  0  0  0  0  0  0  0
   -1.0250    1.3014    1.3953 O   0  0  0  0  0  0  0  0  0  0  0  0
   -1.3407    2.7650   -0.4952 C   0  0  0  0  0  0  0  0  0  0  0  0
    1.0416    0.0783    1.4154 H   0  0  0  0  0  0  0  0  0  0  0  0
    4.3144   -0.6020    0.5210 H   0  0  0  0  0  0  0  0  0  0  0  0
    1.2683   -2.2557    0.3115 H   0  0  0  0  0  0  0  0  0  0  0  0
    0.4428   -1.6367   -1.1304 H   0  0  0  0  0  0  0  0  0  0  0  0
   -0.9271   -2.8323    0.8646 H   0  0  0  0  0  0  0  0  0  0  0  0
   -0.8542   -1.2407    1.6388 H   0  0  0  0  0  0  0  0  0  0  0  0
   -2.5251    0.0299    1.1546 H   0  0  0  0  0  0  0  0  0  0  0  0
    0.6102    1.1949   -1.3507 H   0  0  0  0  0  0  0  0  0  0  0  0
   -1.8737    3.4446    0.1926 H   0  0  0  0  0  0  0  0  0  0  0  0
   -2.1049    2.3647   -1.1856 H   0  0  0  0  0  0  0  0  0  0  0  0
   -0.6469    3.3776   -1.0852 H   0  0  0  0  0  0  0  0  0  0  0  0
  1 14  1  1  0  0  0
  2  1  1  0  0  0  0
  2  4  1  0  0  0  0
  3  2  2  0  0  0  0
  5  1  1  0  0  0  0
  5 16  1  0  0  0  0
  5  6  1  0  0  0  0
  6 18  1  0  0  0  0
  6 19  1  0  0  0  0
  7  9  1  0  0  0  0
  7  6  1  0  0  0  0
  8  7  2  0  0  0  0
  9 20  1  0  0  0  0
 10 11  1  0  0  0  0
 10  1  1  0  0  0  0
 11 12  2  0  0  0  0
 13 22  1  0  0  0  0
 13 11  1  0  0  0  0
 15  4  1  0  0  0  0
 17  5  1  0  0  0  0
 21 10  1  0  0  0  0
 23 13  1  0  0  0  0
 24 13  1  0  0  0  0
M  END
