omegacsd_CEJTIU_12.log
 OpenBabel10161801213D
Gaussian 16 # PM6 Opt
 41 42  0  0  0  0  0  0  0  0999 V2000
    5.7946   -0.6584   -1.2146 C   0  0  0  0  0  0  0  0  0  0  0  0
    4.9757   -0.6828    0.0313 N   0  0  0  0  0  0  0  0  0  0  0  0
    5.7907   -0.2908    1.2156 C   0  0  0  0  0  0  0  0  0  0  0  0
    3.6831   -0.0768   -0.0680 C   0  0  0  0  0  0  0  0  0  0  0  0
    2.9697   -0.1244   -1.2887 C   0  0  0  0  0  0  0  0  0  0  0  0
    1.6570    0.3289   -1.3666 C   0  0  0  0  0  0  0  0  0  0  0  0
    1.0237    0.8489   -0.2214 C   0  0  0  0  0  0  0  0  0  0  0  0
    1.7184    0.9076    0.9975 C   0  0  0  0  0  0  0  0  0  0  0  0
    3.0309    0.4517    1.0694 C   0  0  0  0  0  0  0  0  0  0  0  0
   -0.3316    1.3077   -0.3711 N   0  0  0  0  0  0  0  0  0  0  0  0
   -1.1164    1.8134    0.6690 C   0  0  0  0  0  0  0  0  0  0  0  0
   -0.7180    2.0851    1.7862 O   0  0  0  0  0  0  0  0  0  0  0  0
   -2.4880    2.1334    0.3513 N   0  0  0  0  0  0  0  0  0  0  0  0
   -3.4352    1.5580   -0.5344 C   0  0  0  0  0  0  0  0  0  0  0  0
   -4.5427    2.0575   -0.5429 O   0  0  0  0  0  0  0  0  0  0  0  0
   -3.0625    0.3744   -1.4000 C   0  0  0  0  0  0  0  0  0  0  0  0
   -2.9455   -0.8883   -0.5887 C   0  0  0  0  0  0  0  0  0  0  0  0
   -1.7756   -1.6581   -0.6292 C   0  0  0  0  0  0  0  0  0  0  0  0
   -1.6921   -2.8354    0.1216 C   0  0  0  0  0  0  0  0  0  0  0  0
   -2.7707   -3.2479    0.9087 C   0  0  0  0  0  0  0  0  0  0  0  0
   -3.9402   -2.4802    0.9450 C   0  0  0  0  0  0  0  0  0  0  0  0
   -4.0315   -1.3041    0.1982 C   0  0  0  0  0  0  0  0  0  0  0  0
    6.7253   -1.2260   -1.0507 H   0  0  0  0  0  0  0  0  0  0  0  0
    5.2483   -1.1710   -2.0256 H   0  0  0  0  0  0  0  0  0  0  0  0
    6.0586    0.3546   -1.5553 H   0  0  0  0  0  0  0  0  0  0  0  0
    6.7259   -0.8745    1.2247 H   0  0  0  0  0  0  0  0  0  0  0  0
    6.0475    0.7792    1.2503 H   0  0  0  0  0  0  0  0  0  0  0  0
    5.2450   -0.5535    2.1391 H   0  0  0  0  0  0  0  0  0  0  0  0
    3.4404   -0.5321   -2.1826 H   0  0  0  0  0  0  0  0  0  0  0  0
    1.1347    0.2805   -2.3199 H   0  0  0  0  0  0  0  0  0  0  0  0
    1.2348    1.3141    1.8944 H   0  0  0  0  0  0  0  0  0  0  0  0
    3.5447    0.5025    2.0287 H   0  0  0  0  0  0  0  0  0  0  0  0
   -0.7515    1.1695   -1.2956 H   0  0  0  0  0  0  0  0  0  0  0  0
   -2.8925    2.8323    1.0079 H   0  0  0  0  0  0  0  0  0  0  0  0
   -3.8732    0.2399   -2.1610 H   0  0  0  0  0  0  0  0  0  0  0  0
   -2.1528    0.5747   -2.0024 H   0  0  0  0  0  0  0  0  0  0  0  0
   -0.9251   -1.3513   -1.2342 H   0  0  0  0  0  0  0  0  0  0  0  0
   -0.7785   -3.4289    0.0940 H   0  0  0  0  0  0  0  0  0  0  0  0
   -2.7009   -4.1629    1.4944 H   0  0  0  0  0  0  0  0  0  0  0  0
   -4.7822   -2.7990    1.5586 H   0  0  0  0  0  0  0  0  0  0  0  0
   -4.9447   -0.7081    0.2286 H   0  0  0  0  0  0  0  0  0  0  0  0
  1 23  1  0  0  0  0
  1  2  1  0  0  0  0
  2  3  1  0  0  0  0
  3 26  1  0  0  0  0
  3 27  1  0  0  0  0
  3 28  1  0  0  0  0
  4  2  1  0  0  0  0
  4  9  2  0  0  0  0
  5  4  1  0  0  0  0
  6  5  2  0  0  0  0
  6  7  1  0  0  0  0
  7  8  2  0  0  0  0
  8  9  1  0  0  0  0
  8 31  1  0  0  0  0
  9 32  1  0  0  0  0
 10  7  1  0  0  0  0
 10 11  1  0  0  0  0
 11 12  2  0  0  0  0
 13 11  1  0  0  0  0
 13 34  1  0  0  0  0
 14 13  1  0  0  0  0
 15 14  2  0  0  0  0
 16 17  1  0  0  0  0
 16 14  1  0  0  0  0
 17 22  1  0  0  0  0
 18 17  2  0  0  0  0
 18 19  1  0  0  0  0
 19 20  2  0  0  0  0
 20 21  1  0  0  0  0
 20 39  1  0  0  0  0
 21 40  1  0  0  0  0
 22 41  1  0  0  0  0
 22 21  2  0  0  0  0
 24  1  1  0  0  0  0
 25  1  1  0  0  0  0
 29  5  1  0  0  0  0
 30  6  1  0  0  0  0
 33 10  1  0  0  0  0
 35 16  1  0  0  0  0
 36 16  1  0  0  0  0
 37 18  1  0  0  0  0
 38 19  1  0  0  0  0
M  END
