omegapdb_1m5f_04.log
 OpenBabel10161801213D
Gaussian 16 # PM6 Opt
 25 25  0  0  1  0  0  0  0  0999 V2000
    0.3284    3.2890    0.4037 O   0  0  0  0  0  0  0  0  0  0  0  0
    0.3201    2.1409   -0.3367 C   0  0  0  0  0  0  0  0  0  0  0  0
    1.2164    1.9804   -1.1277 O   0  0  0  0  0  0  0  0  0  0  0  0
   -0.8009    1.1905   -0.1020 C   0  0  0  0  0  0  0  0  0  0  0  0
   -1.9430    1.5109    0.5245 N   0  0  0  0  0  0  0  0  0  0  0  0
   -2.7579    0.4101    0.5346 O   0  0  0  0  0  0  0  0  0  0  0  0
   -2.0814   -0.6467   -0.1201 C   0  0  0  0  0  0  0  0  0  0  0  0
   -0.8429   -0.1973   -0.5309 C   0  0  0  0  0  0  0  0  0  0  0  0
    0.2149   -0.9363   -1.2570 C   0  0  0  0  0  0  0  0  0  0  0  0
    1.1543   -1.7607   -0.3465 C   0  0  2  0  0  0  0  0  0  0  0  0
    0.3909   -2.6780    0.5249 N   0  0  0  0  0  0  0  0  0  0  0  0
    2.0264   -0.7919    0.4670 C   0  0  0  0  0  0  0  0  0  0  0  0
    1.7906   -0.2587    1.5246 O   0  0  0  0  0  0  0  0  0  0  0  0
    3.2197   -0.6028   -0.1716 O   0  0  0  0  0  0  0  0  0  0  0  0
   -2.8317   -1.8983   -0.2121 C   0  0  0  0  0  0  0  0  0  0  0  0
   -0.4214    3.3893    1.0510 H   0  0  0  0  0  0  0  0  0  0  0  0
   -0.2500   -1.6312   -1.9933 H   0  0  0  0  0  0  0  0  0  0  0  0
    0.8315   -0.2211   -1.8593 H   0  0  0  0  0  0  0  0  0  0  0  0
    1.8305   -2.3753   -1.0084 H   0  0  0  0  0  0  0  0  0  0  0  0
   -0.1529   -2.1614    1.2164 H   0  0  0  0  0  0  0  0  0  0  0  0
    1.0119   -3.3048    1.0320 H   0  0  0  0  0  0  0  0  0  0  0  0
    3.7987    0.0810    0.2677 H   0  0  0  0  0  0  0  0  0  0  0  0
   -3.5262   -2.0354    0.6333 H   0  0  0  0  0  0  0  0  0  0  0  0
   -3.4358   -1.9423   -1.1353 H   0  0  0  0  0  0  0  0  0  0  0  0
   -2.1516   -2.7734   -0.2284 H   0  0  0  0  0  0  0  0  0  0  0  0
  1 16  1  0  0  0  0
  2  4  1  0  0  0  0
  2  1  1  0  0  0  0
  3  2  2  0  0  0  0
  4  5  2  0  0  0  0
  5  6  1  0  0  0  0
  7  6  1  0  0  0  0
  8  7  2  0  0  0  0
  8  4  1  0  0  0  0
  9  8  1  0  0  0  0
  9 10  1  0  0  0  0
 10 19  1  6  0  0  0
 10 12  1  0  0  0  0
 10 11  1  0  0  0  0
 11 21  1  0  0  0  0
 11 20  1  0  0  0  0
 12 13  2  0  0  0  0
 14 22  1  0  0  0  0
 14 12  1  0  0  0  0
 15  7  1  0  0  0  0
 15 23  1  0  0  0  0
 17  9  1  0  0  0  0
 18  9  1  0  0  0  0
 24 15  1  0  0  0  0
 25 15  1  0  0  0  0
M  END
