omegacsd_CUHNEY10_06.log
 OpenBabel10161801213D
Gaussian 16 # PM6 Opt
 44 47  0  0  1  0  0  0  0  0999 V2000
    4.7461    2.7788   -0.5159 Cl  0  0  0  0  0  0  0  0  0  0  0  0
    3.0851    2.4175   -0.3243 C   0  0  0  0  0  0  0  0  0  0  0  0
    2.4906    1.4300   -1.1283 C   0  0  0  0  0  0  0  0  0  0  0  0
    1.1821    1.1067   -1.0070 N   0  0  0  0  0  0  0  0  0  0  0  0
    0.4296    1.7781   -0.0744 C   0  0  0  0  0  0  0  0  0  0  0  0
   -0.9435    1.4076   -0.0264 N   0  0  0  0  0  0  0  0  0  0  0  0
   -1.9543    2.0354    0.7954 C   0  0  0  0  0  0  0  0  0  0  0  0
   -1.7447    2.9162    1.5807 O   0  0  0  0  0  0  0  0  0  0  0  0
   -3.2345    1.3563    0.3872 C   0  0  0  0  0  0  0  0  0  0  0  0
   -4.4735    1.6342    0.8141 N   0  0  0  0  0  0  0  0  0  0  0  0
   -5.4622    0.8731    0.2544 C   0  0  0  0  0  0  0  0  0  0  0  0
   -5.1945   -0.1226   -0.7085 C   0  0  0  0  0  0  0  0  0  0  0  0
   -3.9246   -0.4041   -1.1366 N   0  0  0  0  0  0  0  0  0  0  0  0
   -2.9580    0.3357   -0.5780 C   0  0  0  0  0  0  0  0  0  0  0  0
   -1.4571    0.2417   -0.8226 C   0  0  2  0  0  0  0  0  0  0  0  0
   -1.0040   -0.9355   -0.1235 O   0  0  0  0  0  0  0  0  0  0  0  0
   -0.3875   -1.9356   -0.9067 C   0  0  0  0  0  0  0  0  0  0  0  0
   -0.2836   -1.8261   -2.1066 O   0  0  0  0  0  0  0  0  0  0  0  0
   -0.1138   -3.0522   -0.1102 N   0  0  0  0  0  0  0  0  0  0  0  0
   -0.0719   -2.9167    1.3761 C   0  0  0  0  0  0  0  0  0  0  0  0
    1.2941   -3.3466    1.9588 C   0  0  0  0  0  0  0  0  0  0  0  0
    2.4688   -3.0453    1.0944 N   0  0  0  0  0  0  0  0  0  0  0  0
    2.3281   -3.7007   -0.2438 C   0  0  0  0  0  0  0  0  0  0  0  0
    0.8770   -4.0129   -0.6731 C   0  0  0  0  0  0  0  0  0  0  0  0
    2.6955   -1.5748    0.9715 C   0  0  0  0  0  0  0  0  0  0  0  0
    0.9704    2.7819    0.7628 C   0  0  0  0  0  0  0  0  0  0  0  0
    2.3190    3.0999    0.6282 C   0  0  0  0  0  0  0  0  0  0  0  0
    3.0611    0.8805   -1.8902 H   0  0  0  0  0  0  0  0  0  0  0  0
   -6.4834    1.0852    0.5966 H   0  0  0  0  0  0  0  0  0  0  0  0
   -5.9966   -0.7208   -1.1608 H   0  0  0  0  0  0  0  0  0  0  0  0
   -1.1182    0.2441   -1.8909 H   0  0  0  0  0  0  0  0  0  0  0  0
   -0.8852   -3.5606    1.7814 H   0  0  0  0  0  0  0  0  0  0  0  0
   -0.3125   -1.8716    1.6782 H   0  0  0  0  0  0  0  0  0  0  0  0
    1.4469   -2.8633    2.9479 H   0  0  0  0  0  0  0  0  0  0  0  0
    1.3017   -4.4438    2.1483 H   0  0  0  0  0  0  0  0  0  0  0  0
    2.8323   -3.0939   -1.0254 H   0  0  0  0  0  0  0  0  0  0  0  0
    2.9009   -4.6549   -0.1778 H   0  0  0  0  0  0  0  0  0  0  0  0
    0.7927   -4.0211   -1.7851 H   0  0  0  0  0  0  0  0  0  0  0  0
    0.5725   -5.0247   -0.3206 H   0  0  0  0  0  0  0  0  0  0  0  0
    2.8315   -1.1455    1.9771 H   0  0  0  0  0  0  0  0  0  0  0  0
    1.8925   -1.0191    0.4643 H   0  0  0  0  0  0  0  0  0  0  0  0
    3.6361   -1.4056    0.4223 H   0  0  0  0  0  0  0  0  0  0  0  0
    0.3452    3.3007    1.4981 H   0  0  0  0  0  0  0  0  0  0  0  0
    2.7729    3.8705    1.2562 H   0  0  0  0  0  0  0  0  0  0  0  0
  1  2  1  0  0  0  0
  2 27  2  0  0  0  0
  3  4  2  0  0  0  0
  3  2  1  0  0  0  0
  4  5  1  0  0  0  0
  5  6  1  0  0  0  0
  5 26  2  0  0  0  0
  6  7  1  0  0  0  0
  7  8  2  0  0  0  0
  9  7  1  0  0  0  0
  9 10  1  0  0  0  0
 11 29  1  0  0  0  0
 11 10  2  0  0  0  0
 12 11  1  0  0  0  0
 13 12  2  0  0  0  0
 13 14  1  0  0  0  0
 14  9  2  0  0  0  0
 15 31  1  6  0  0  0
 15 14  1  0  0  0  0
 15 16  1  0  0  0  0
 15  6  1  0  0  0  0
 17 16  1  0  0  0  0
 17 19  1  0  0  0  0
 18 17  2  0  0  0  0
 19 20  1  0  0  0  0
 20 33  1  0  0  0  0
 20 32  1  0  0  0  0
 20 21  1  0  0  0  0
 21 35  1  0  0  0  0
 21 34  1  0  0  0  0
 22 21  1  0  0  0  0
 23 37  1  0  0  0  0
 23 22  1  0  0  0  0
 24 39  1  0  0  0  0
 24 23  1  0  0  0  0
 24 19  1  0  0  0  0
 25 22  1  0  0  0  0
 25 40  1  0  0  0  0
 26 43  1  0  0  0  0
 27 26  1  0  0  0  0
 27 44  1  0  0  0  0
 28  3  1  0  0  0  0
 30 12  1  0  0  0  0
 36 23  1  0  0  0  0
 38 24  1  0  0  0  0
 41 25  1  0  0  0  0
 42 25  1  0  0  0  0
M  END
