omegacsd_SPIRIL_05.log
 OpenBabel10161801213D
Gaussian 16 # PM6 Opt
 57 60  0  0  1  0  0  0  0  0999 V2000
   -2.1379    1.1148    1.3936 C   0  0  0  0  0  0  0  0  0  0  0  0
   -2.9451    1.1892    0.0854 C   0  0  2  0  0  0  0  0  0  0  0  0
   -3.1237    2.6794   -0.3404 C   0  0  0  0  0  0  0  0  0  0  0  0
   -2.2774    3.5256   -0.5218 O   0  0  0  0  0  0  0  0  0  0  0  0
   -4.4892    2.9120   -0.5356 N   0  0  0  0  0  0  0  0  0  0  0  0
   -5.3322    1.7485   -0.1715 C   0  0  0  0  0  0  0  0  0  0  0  0
   -4.3591    0.7290    0.3581 N   0  0  0  0  0  0  0  0  0  0  0  0
   -4.7082   -0.6515    0.2322 C   0  0  0  0  0  0  0  0  0  0  0  0
   -5.8833   -1.0685   -0.4255 C   0  0  0  0  0  0  0  0  0  0  0  0
   -6.2414   -2.4184   -0.4211 C   0  0  0  0  0  0  0  0  0  0  0  0
   -5.4430   -3.3671    0.2214 C   0  0  0  0  0  0  0  0  0  0  0  0
   -4.2749   -2.9549    0.8738 C   0  0  0  0  0  0  0  0  0  0  0  0
   -3.9035   -1.6131    0.8850 C   0  0  0  0  0  0  0  0  0  0  0  0
   -2.2596    0.4314   -1.0666 C   0  0  0  0  0  0  0  0  0  0  0  0
   -0.7774    0.8382   -1.1911 C   0  0  0  0  0  0  0  0  0  0  0  0
    0.0027    0.7112    0.0716 N   0  0  0  0  0  0  0  0  0  0  0  0
    0.2611   -0.7115    0.4636 C   0  0  0  0  0  0  0  0  0  0  0  0
    1.3230   -1.3425   -0.4582 C   0  0  0  0  0  0  0  0  0  0  0  0
    2.6739   -0.7265   -0.2708 C   0  0  0  0  0  0  0  0  0  0  0  0
    3.8370   -1.3950   -0.3035 C   0  0  0  0  0  0  0  0  0  0  0  0
    5.1225   -0.6759   -0.1256 C   0  0  0  0  0  0  0  0  0  0  0  0
    5.3697    0.0373    1.0599 C   0  0  0  0  0  0  0  0  0  0  0  0
    6.5778    0.7136    1.2440 C   0  0  0  0  0  0  0  0  0  0  0  0
    7.5213    0.6583    0.2147 C   0  0  0  0  0  0  0  0  0  0  0  0
    7.3102   -0.0375   -0.9791 C   0  0  0  0  0  0  0  0  0  0  0  0
    6.0957   -0.7083   -1.1387 C   0  0  0  0  0  0  0  0  0  0  0  0
    8.6808    1.3008    0.3793 F   0  0  0  0  0  0  0  0  0  0  0  0
    3.9600   -2.8708   -0.5223 C   0  0  0  0  0  0  0  0  0  0  0  0
   -0.6629    1.4875    1.1565 C   0  0  0  0  0  0  0  0  0  0  0  0
   -2.2153    0.0887    1.8153 H   0  0  0  0  0  0  0  0  0  0  0  0
   -2.5834    1.7790    2.1587 H   0  0  0  0  0  0  0  0  0  0  0  0
   -4.8956    3.8187   -0.7157 H   0  0  0  0  0  0  0  0  0  0  0  0
   -6.0478    1.9967    0.6494 H   0  0  0  0  0  0  0  0  0  0  0  0
   -5.9046    1.3945   -1.0643 H   0  0  0  0  0  0  0  0  0  0  0  0
   -6.5182   -0.3536   -0.9437 H   0  0  0  0  0  0  0  0  0  0  0  0
   -7.1537   -2.7315   -0.9294 H   0  0  0  0  0  0  0  0  0  0  0  0
   -5.7268   -4.4161    0.2188 H   0  0  0  0  0  0  0  0  0  0  0  0
   -3.6519   -3.6903    1.3832 H   0  0  0  0  0  0  0  0  0  0  0  0
   -3.0043   -1.2966    1.4198 H   0  0  0  0  0  0  0  0  0  0  0  0
   -2.7835    0.6192   -2.0223 H   0  0  0  0  0  0  0  0  0  0  0  0
   -2.3309   -0.6619   -0.9017 H   0  0  0  0  0  0  0  0  0  0  0  0
   -0.7050    1.9078   -1.5084 H   0  0  0  0  0  0  0  0  0  0  0  0
   -0.2844    0.2372   -1.9844 H   0  0  0  0  0  0  0  0  0  0  0  0
   -0.6559   -1.3387    0.4485 H   0  0  0  0  0  0  0  0  0  0  0  0
    0.6379   -0.7222    1.5103 H   0  0  0  0  0  0  0  0  0  0  0  0
    1.3498   -2.4370   -0.2740 H   0  0  0  0  0  0  0  0  0  0  0  0
    1.0247   -1.2231   -1.5234 H   0  0  0  0  0  0  0  0  0  0  0  0
    2.6498    0.3583   -0.1185 H   0  0  0  0  0  0  0  0  0  0  0  0
    4.6110    0.0620    1.8427 H   0  0  0  0  0  0  0  0  0  0  0  0
    6.7728    1.2666    2.1608 H   0  0  0  0  0  0  0  0  0  0  0  0
    8.0650   -0.0568   -1.7627 H   0  0  0  0  0  0  0  0  0  0  0  0
    5.8993   -1.2571   -2.0594 H   0  0  0  0  0  0  0  0  0  0  0  0
    3.0587   -3.4108   -0.2002 H   0  0  0  0  0  0  0  0  0  0  0  0
    4.8085   -3.2945    0.0320 H   0  0  0  0  0  0  0  0  0  0  0  0
    4.1159   -3.0979   -1.5858 H   0  0  0  0  0  0  0  0  0  0  0  0
   -0.0842    1.3754    2.0959 H   0  0  0  0  0  0  0  0  0  0  0  0
   -0.5918    2.5669    0.8675 H   0  0  0  0  0  0  0  0  0  0  0  0
  1 30  1  0  0  0  0
  1 31  1  0  0  0  0
  2 14  1  6  0  0  0
  2  7  1  0  0  0  0
  2  1  1  0  0  0  0
  3  2  1  0  0  0  0
  4  3  2  0  0  0  0
  5  3  1  0  0  0  0
  5  6  1  0  0  0  0
  6  7  1  0  0  0  0
  6 33  1  0  0  0  0
  8  7  1  0  0  0  0
  8 13  2  0  0  0  0
  9 10  2  0  0  0  0
  9  8  1  0  0  0  0
 10 11  1  0  0  0  0
 11 12  2  0  0  0  0
 12 13  1  0  0  0  0
 12 38  1  0  0  0  0
 13 39  1  0  0  0  0
 14 41  1  0  0  0  0
 15 14  1  0  0  0  0
 15 16  1  0  0  0  0
 16 17  1  0  0  0  0
 16 29  1  0  0  0  0
 17 45  1  0  0  0  0
 18 46  1  0  0  0  0
 18 19  1  0  0  0  0
 18 17  1  0  0  0  0
 19 48  1  0  0  0  0
 20 19  2  0  0  0  0
 20 21  1  0  0  0  0
 21 22  2  0  0  0  0
 22 23  1  0  0  0  0
 22 49  1  0  0  0  0
 23 50  1  0  0  0  0
 24 27  1  0  0  0  0
 24 23  2  0  0  0  0
 25 24  1  0  0  0  0
 26 25  2  0  0  0  0
 26 21  1  0  0  0  0
 28 20  1  0  0  0  0
 28 53  1  0  0  0  0
 28 54  1  0  0  0  0
 29  1  1  0  0  0  0
 29 56  1  0  0  0  0
 32  5  1  0  0  0  0
 34  6  1  0  0  0  0
 35  9  1  0  0  0  0
 36 10  1  0  0  0  0
 37 11  1  0  0  0  0
 40 14  1  0  0  0  0
 42 15  1  0  0  0  0
 43 15  1  0  0  0  0
 44 17  1  0  0  0  0
 47 18  1  0  0  0  0
 51 25  1  0  0  0  0
 52 26  1  0  0  0  0
 55 28  1  0  0  0  0
 57 29  1  0  0  0  0
M  END
