omegacsd_GALSEM_05.log
 OpenBabel10161801213D
Gaussian 16 # PM6 Opt
 39 40  0  0  0  0  0  0  0  0999 V2000
    2.2814   -1.0570   -1.1537 S   0  0  0  0  0  0  0  0  0  0  0  0
    1.0994   -1.9266   -1.0351 O   0  0  0  0  0  0  0  0  0  0  0  0
    3.1673   -1.2419   -2.2671 O   0  0  0  0  0  0  0  0  0  0  0  0
    3.1339   -1.5077    0.3019 N   0  0  0  0  0  0  0  0  0  0  0  0
    4.2829   -0.8214    0.7541 C   0  0  0  0  0  0  0  0  0  0  0  0
    4.6149    0.1815    0.1504 O   0  0  0  0  0  0  0  0  0  0  0  0
    4.9955   -1.4135    1.9481 C   0  0  0  0  0  0  0  0  0  0  0  0
    5.7881   -0.3450    2.6910 C   0  0  0  0  0  0  0  0  0  0  0  0
    1.8042    0.5529   -0.9666 C   0  0  0  0  0  0  0  0  0  0  0  0
    0.5182    0.9603   -0.5272 C   0  0  0  0  0  0  0  0  0  0  0  0
   -0.4388    0.0152   -0.1942 N   0  0  0  0  0  0  0  0  0  0  0  0
   -1.7128    0.3158    0.3969 C   0  0  0  0  0  0  0  0  0  0  0  0
   -2.8569   -0.2942   -0.1528 C   0  0  0  0  0  0  0  0  0  0  0  0
   -4.0982   -0.0658    0.4458 C   0  0  0  0  0  0  0  0  0  0  0  0
   -4.2103    0.7600    1.5738 C   0  0  0  0  0  0  0  0  0  0  0  0
   -3.0651    1.3554    2.1111 C   0  0  0  0  0  0  0  0  0  0  0  0
   -1.8133    1.1357    1.5349 C   0  0  0  0  0  0  0  0  0  0  0  0
   -5.3519   -0.6973   -0.1072 C   0  0  0  0  0  0  0  0  0  0  0  0
   -5.2018   -1.4853   -1.1828 F   0  0  0  0  0  0  0  0  0  0  0  0
   -6.2832    0.1921   -0.4935 F   0  0  0  0  0  0  0  0  0  0  0  0
   -5.9993   -1.4814    0.7722 F   0  0  0  0  0  0  0  0  0  0  0  0
    0.2396    2.3584   -0.4548 C   0  0  0  0  0  0  0  0  0  0  0  0
    1.2279    3.2634   -0.8013 C   0  0  0  0  0  0  0  0  0  0  0  0
    2.4832    2.8800   -1.2148 N   0  0  0  0  0  0  0  0  0  0  0  0
    2.7484    1.5671   -1.2908 C   0  0  0  0  0  0  0  0  0  0  0  0
    2.8254   -2.3540    0.7985 H   0  0  0  0  0  0  0  0  0  0  0  0
    5.6817   -2.2118    1.5834 H   0  0  0  0  0  0  0  0  0  0  0  0
    4.2914   -1.9158    2.6417 H   0  0  0  0  0  0  0  0  0  0  0  0
    5.1298    0.3848    3.1786 H   0  0  0  0  0  0  0  0  0  0  0  0
    6.4298   -0.7868    3.4616 H   0  0  0  0  0  0  0  0  0  0  0  0
    6.4331    0.2229    2.0016 H   0  0  0  0  0  0  0  0  0  0  0  0
   -0.2822   -1.0027   -0.4460 H   0  0  0  0  0  0  0  0  0  0  0  0
   -2.7587   -0.9320   -1.0352 H   0  0  0  0  0  0  0  0  0  0  0  0
   -5.1821    0.9403    2.0380 H   0  0  0  0  0  0  0  0  0  0  0  0
   -3.1502    1.9928    2.9933 H   0  0  0  0  0  0  0  0  0  0  0  0
   -0.9204    1.5872    1.9706 H   0  0  0  0  0  0  0  0  0  0  0  0
   -0.7478    2.7116   -0.1677 H   0  0  0  0  0  0  0  0  0  0  0  0
    1.0566    4.3479   -0.7675 H   0  0  0  0  0  0  0  0  0  0  0  0
    3.7711    1.2907   -1.6204 H   0  0  0  0  0  0  0  0  0  0  0  0
  1  2  2  0  0  0  0
  1  9  1  0  0  0  0
  1  4  1  0  0  0  0
  3  1  2  0  0  0  0
  4  5  1  0  0  0  0
  4 26  1  0  0  0  0
  5  7  1  0  0  0  0
  6  5  2  0  0  0  0
  7 28  1  0  0  0  0
  7  8  1  0  0  0  0
  8 29  1  0  0  0  0
  8 30  1  0  0  0  0
  9 10  2  0  0  0  0
 10 22  1  0  0  0  0
 10 11  1  0  0  0  0
 11 12  1  0  0  0  0
 12 17  1  0  0  0  0
 13 12  2  0  0  0  0
 13 14  1  0  0  0  0
 14 15  2  0  0  0  0
 15 34  1  0  0  0  0
 15 16  1  0  0  0  0
 16 35  1  0  0  0  0
 17 36  1  0  0  0  0
 17 16  2  0  0  0  0
 18 14  1  0  0  0  0
 18 21  1  0  0  0  0
 19 18  1  0  0  0  0
 20 18  1  0  0  0  0
 22 37  1  0  0  0  0
 23 38  1  0  0  0  0
 23 22  2  0  0  0  0
 24 23  1  0  0  0  0
 25 24  2  0  0  0  0
 25  9  1  0  0  0  0
 27  7  1  0  0  0  0
 31  8  1  0  0  0  0
 32 11  1  0  0  0  0
 33 13  1  0  0  0  0
 39 25  1  0  0  0  0
M  END
