omegacsd_CUHNEY10_14.log
 OpenBabel10161801213D
Gaussian 16 # PM6 Opt
 44 47  0  0  1  0  0  0  0  0999 V2000
   -4.0319    3.5955   -0.0123 Cl  0  0  0  0  0  0  0  0  0  0  0  0
   -2.4734    2.8968    0.0935 C   0  0  0  0  0  0  0  0  0  0  0  0
   -1.6420    2.8737   -1.0408 C   0  0  0  0  0  0  0  0  0  0  0  0
   -0.4032    2.3304   -1.0025 N   0  0  0  0  0  0  0  0  0  0  0  0
    0.0429    1.8204    0.1866 C   0  0  0  0  0  0  0  0  0  0  0  0
    1.3815    1.3164    0.2083 N   0  0  0  0  0  0  0  0  0  0  0  0
    2.4341    1.7415   -0.6996 C   0  0  0  0  0  0  0  0  0  0  0  0
    2.4300    2.7338   -1.3597 O   0  0  0  0  0  0  0  0  0  0  0  0
    3.5306    0.7203   -0.4775 C   0  0  0  0  0  0  0  0  0  0  0  0
    4.7375    0.6863   -1.0553 N   0  0  0  0  0  0  0  0  0  0  0  0
    5.5463   -0.3417   -0.6523 C   0  0  0  0  0  0  0  0  0  0  0  0
    5.1413   -1.2877    0.3115 C   0  0  0  0  0  0  0  0  0  0  0  0
    3.9038   -1.2497    0.8976 N   0  0  0  0  0  0  0  0  0  0  0  0
    3.1122   -0.2502    0.4872 C   0  0  0  0  0  0  0  0  0  0  0  0
    1.6925    0.0486    0.9397 C   0  0  2  0  0  0  0  0  0  0  0  0
    0.8589   -0.9937    0.3860 O   0  0  0  0  0  0  0  0  0  0  0  0
   -0.1513   -1.5030    1.2210 C   0  0  0  0  0  0  0  0  0  0  0  0
   -0.3464   -1.0321    2.3234 O   0  0  0  0  0  0  0  0  0  0  0  0
   -0.7300   -2.6349    0.6458 N   0  0  0  0  0  0  0  0  0  0  0  0
   -0.5503   -2.8884   -0.8133 C   0  0  0  0  0  0  0  0  0  0  0  0
   -1.6895   -2.2576   -1.6404 C   0  0  0  0  0  0  0  0  0  0  0  0
   -3.0609   -2.6221   -1.1795 N   0  0  0  0  0  0  0  0  0  0  0  0
   -3.2012   -2.3719    0.2845 C   0  0  0  0  0  0  0  0  0  0  0  0
   -2.0888   -2.9964    1.1523 C   0  0  0  0  0  0  0  0  0  0  0  0
   -3.4201   -4.0229   -1.5445 C   0  0  0  0  0  0  0  0  0  0  0  0
   -0.7528    1.7901    1.3558 C   0  0  0  0  0  0  0  0  0  0  0  0
   -2.0297    2.3444    1.2999 C   0  0  0  0  0  0  0  0  0  0  0  0
   -1.9664    3.2876   -2.0057 H   0  0  0  0  0  0  0  0  0  0  0  0
    6.5371   -0.3845   -1.1226 H   0  0  0  0  0  0  0  0  0  0  0  0
    5.8020   -2.1009    0.6377 H   0  0  0  0  0  0  0  0  0  0  0  0
    1.5448    0.1405    2.0443 H   0  0  0  0  0  0  0  0  0  0  0  0
    0.4397   -2.4985   -1.1456 H   0  0  0  0  0  0  0  0  0  0  0  0
   -0.5223   -3.9928   -0.9489 H   0  0  0  0  0  0  0  0  0  0  0  0
   -1.6178   -1.1451   -1.6034 H   0  0  0  0  0  0  0  0  0  0  0  0
   -1.5780   -2.5323   -2.7109 H   0  0  0  0  0  0  0  0  0  0  0  0
   -4.1941   -2.7361    0.6243 H   0  0  0  0  0  0  0  0  0  0  0  0
   -3.2175   -1.2658    0.4224 H   0  0  0  0  0  0  0  0  0  0  0  0
   -2.1898   -2.6754    2.2150 H   0  0  0  0  0  0  0  0  0  0  0  0
   -2.1505   -4.1075    1.1446 H   0  0  0  0  0  0  0  0  0  0  0  0
   -4.4663   -4.2111   -1.2520 H   0  0  0  0  0  0  0  0  0  0  0  0
   -2.7892   -4.8019   -1.0942 H   0  0  0  0  0  0  0  0  0  0  0  0
   -3.3728   -4.1289   -2.6409 H   0  0  0  0  0  0  0  0  0  0  0  0
   -0.3891    1.3356    2.2806 H   0  0  0  0  0  0  0  0  0  0  0  0
   -2.6721    2.3487    2.1834 H   0  0  0  0  0  0  0  0  0  0  0  0
  1  2  1  0  0  0  0
  2 27  2  0  0  0  0
  3  4  2  0  0  0  0
  3  2  1  0  0  0  0
  4  5  1  0  0  0  0
  5  6  1  0  0  0  0
  5 26  2  0  0  0  0
  6 15  1  0  0  0  0
  7  9  1  0  0  0  0
  7  6  1  0  0  0  0
  8  7  2  0  0  0  0
  9 14  2  0  0  0  0
 10 11  2  0  0  0  0
 10  9  1  0  0  0  0
 11 12  1  0  0  0  0
 12 30  1  0  0  0  0
 12 13  2  0  0  0  0
 14 13  1  0  0  0  0
 14 15  1  0  0  0  0
 15 31  1  1  0  0  0
 16 15  1  0  0  0  0
 16 17  1  0  0  0  0
 17 18  2  0  0  0  0
 19 24  1  0  0  0  0
 19 17  1  0  0  0  0
 20 19  1  0  0  0  0
 21 34  1  0  0  0  0
 21 22  1  0  0  0  0
 21 20  1  0  0  0  0
 22 23  1  0  0  0  0
 23 37  1  0  0  0  0
 23 36  1  0  0  0  0
 23 24  1  0  0  0  0
 24 38  1  0  0  0  0
 25 40  1  0  0  0  0
 25 22  1  0  0  0  0
 25 41  1  0  0  0  0
 26 43  1  0  0  0  0
 27 26  1  0  0  0  0
 27 44  1  0  0  0  0
 28  3  1  0  0  0  0
 29 11  1  0  0  0  0
 32 20  1  0  0  0  0
 33 20  1  0  0  0  0
 35 21  1  0  0  0  0
 39 24  1  0  0  0  0
 42 25  1  0  0  0  0
M  END
