omegacsd_CUHNEY10_04.log
 OpenBabel10161801213D
Gaussian 16 # PM6 Opt
 44 47  0  0  1  0  0  0  0  0999 V2000
    4.7438    2.7815   -0.5159 Cl  0  0  0  0  0  0  0  0  0  0  0  0
    3.0830    2.4191   -0.3245 C   0  0  0  0  0  0  0  0  0  0  0  0
    2.4892    1.4313   -1.1284 C   0  0  0  0  0  0  0  0  0  0  0  0
    1.1807    1.1073   -1.0072 N   0  0  0  0  0  0  0  0  0  0  0  0
    0.4278    1.7782   -0.0747 C   0  0  0  0  0  0  0  0  0  0  0  0
   -0.9450    1.4069   -0.0265 N   0  0  0  0  0  0  0  0  0  0  0  0
   -1.9562    2.0345    0.7948 C   0  0  0  0  0  0  0  0  0  0  0  0
   -1.7472    2.9159    1.5796 O   0  0  0  0  0  0  0  0  0  0  0  0
   -3.2359    1.3544    0.3871 C   0  0  0  0  0  0  0  0  0  0  0  0
   -4.4751    1.6316    0.8139 N   0  0  0  0  0  0  0  0  0  0  0  0
   -5.4633    0.8694    0.2546 C   0  0  0  0  0  0  0  0  0  0  0  0
   -5.1949   -0.1267   -0.7076 C   0  0  0  0  0  0  0  0  0  0  0  0
   -3.9248   -0.4074   -1.1357 N   0  0  0  0  0  0  0  0  0  0  0  0
   -2.9588    0.3333   -0.5777 C   0  0  0  0  0  0  0  0  0  0  0  0
   -1.4578    0.2403   -0.8224 C   0  0  2  0  0  0  0  0  0  0  0  0
   -1.0037   -0.9363   -0.1232 O   0  0  0  0  0  0  0  0  0  0  0  0
   -0.3862   -1.9358   -0.9063 C   0  0  0  0  0  0  0  0  0  0  0  0
   -0.2830   -1.8266   -2.1064 O   0  0  0  0  0  0  0  0  0  0  0  0
   -0.1108   -3.0518   -0.1096 N   0  0  0  0  0  0  0  0  0  0  0  0
   -0.0682   -2.9156    1.3766 C   0  0  0  0  0  0  0  0  0  0  0  0
    1.2981   -3.3454    1.9587 C   0  0  0  0  0  0  0  0  0  0  0  0
    2.4724   -3.0434    1.0940 N   0  0  0  0  0  0  0  0  0  0  0  0
    2.3315   -3.6988   -0.2442 C   0  0  0  0  0  0  0  0  0  0  0  0
    0.8803   -4.0120   -0.6728 C   0  0  0  0  0  0  0  0  0  0  0  0
    2.6983   -1.5728    0.9710 C   0  0  0  0  0  0  0  0  0  0  0  0
    0.9681    2.7824    0.7626 C   0  0  0  0  0  0  0  0  0  0  0  0
    2.3164    3.1011    0.6281 C   0  0  0  0  0  0  0  0  0  0  0  0
    3.0599    0.8822   -1.8903 H   0  0  0  0  0  0  0  0  0  0  0  0
   -6.4846    1.0811    0.5968 H   0  0  0  0  0  0  0  0  0  0  0  0
   -5.9966   -0.7257   -1.1595 H   0  0  0  0  0  0  0  0  0  0  0  0
   -1.1193    0.2429   -1.8908 H   0  0  0  0  0  0  0  0  0  0  0  0
   -0.8813   -3.5592    1.7827 H   0  0  0  0  0  0  0  0  0  0  0  0
   -0.3085   -1.8703    1.6784 H   0  0  0  0  0  0  0  0  0  0  0  0
    1.3060   -4.4427    2.1478 H   0  0  0  0  0  0  0  0  0  0  0  0
    1.4512   -2.8625    2.9479 H   0  0  0  0  0  0  0  0  0  0  0  0
    2.8348   -3.0916   -1.0261 H   0  0  0  0  0  0  0  0  0  0  0  0
    2.9048   -4.6526   -0.1786 H   0  0  0  0  0  0  0  0  0  0  0  0
    0.7955   -4.0204   -1.7847 H   0  0  0  0  0  0  0  0  0  0  0  0
    0.5766   -5.0239   -0.3200 H   0  0  0  0  0  0  0  0  0  0  0  0
    2.8340   -1.1434    1.9765 H   0  0  0  0  0  0  0  0  0  0  0  0
    1.8950   -1.0175    0.4638 H   0  0  0  0  0  0  0  0  0  0  0  0
    3.6387   -1.4031    0.4218 H   0  0  0  0  0  0  0  0  0  0  0  0
    0.3424    3.3008    1.4978 H   0  0  0  0  0  0  0  0  0  0  0  0
    2.7699    3.8719    1.2561 H   0  0  0  0  0  0  0  0  0  0  0  0
  1  2  1  0  0  0  0
  2 27  2  0  0  0  0
  3  4  2  0  0  0  0
  3  2  1  0  0  0  0
  4  5  1  0  0  0  0
  5  6  1  0  0  0  0
  5 26  2  0  0  0  0
  6  7  1  0  0  0  0
  7  8  2  0  0  0  0
  9  7  1  0  0  0  0
  9 10  1  0  0  0  0
 11 29  1  0  0  0  0
 11 10  2  0  0  0  0
 12 11  1  0  0  0  0
 13 12  2  0  0  0  0
 13 14  1  0  0  0  0
 14  9  2  0  0  0  0
 15 31  1  6  0  0  0
 15 14  1  0  0  0  0
 15 16  1  0  0  0  0
 15  6  1  0  0  0  0
 17 16  1  0  0  0  0
 17 19  1  0  0  0  0
 18 17  2  0  0  0  0
 19 20  1  0  0  0  0
 20 33  1  0  0  0  0
 20 32  1  0  0  0  0
 20 21  1  0  0  0  0
 21 34  1  0  0  0  0
 21 35  1  0  0  0  0
 22 21  1  0  0  0  0
 23 37  1  0  0  0  0
 23 22  1  0  0  0  0
 24 39  1  0  0  0  0
 24 23  1  0  0  0  0
 24 19  1  0  0  0  0
 25 22  1  0  0  0  0
 25 40  1  0  0  0  0
 26 43  1  0  0  0  0
 27 26  1  0  0  0  0
 27 44  1  0  0  0  0
 28  3  1  0  0  0  0
 30 12  1  0  0  0  0
 36 23  1  0  0  0  0
 38 24  1  0  0  0  0
 41 25  1  0  0  0  0
 42 25  1  0  0  0  0
M  END
