omegapdb_1qxw_20.log
 OpenBabel10161801213D
Gaussian 16 # PM6 Opt
 36 36  0  0  1  0  0  0  0  0999 V2000
    3.3151    0.3370    0.8361 C   0  0  0  0  0  0  0  0  0  0  0  0
    3.7251    0.3034   -0.6222 C   0  0  0  0  0  0  0  0  0  0  0  0
    2.8742   -0.8240   -0.0498 C   0  0  0  0  0  0  0  0  0  0  0  0
    1.4609   -0.8447   -0.4678 N   0  0  0  0  0  0  0  0  0  0  0  0
    0.6211   -1.6151    0.4940 C   0  0  0  0  0  0  0  0  0  0  0  0
   -0.8557   -1.5417    0.0511 C   0  0  0  0  0  0  0  0  0  0  0  0
   -1.4206   -0.1372   -0.2977 C   0  0  1  0  0  0  0  0  0  0  0  0
   -2.7929   -0.3574   -0.8367 N   0  0  0  0  0  0  0  0  0  0  0  0
   -1.3497    0.7942    0.9252 C   0  0  0  0  0  0  0  0  0  0  0  0
   -1.8102    2.2265    0.6351 C   0  0  0  0  0  0  0  0  0  0  0  0
   -1.0321    2.9256   -0.4904 C   0  0  0  0  0  0  0  0  0  0  0  0
    0.4699    2.9992   -0.2284 C   0  0  0  0  0  0  0  0  0  0  0  0
   -0.9718   -2.4655   -1.0216 O   0  0  0  0  0  0  0  0  0  0  0  0
   -1.6695   -2.0647    1.1108 O   0  0  0  0  0  0  0  0  0  0  0  0
    4.0551    0.1653    1.6123 H   0  0  0  0  0  0  0  0  0  0  0  0
    2.5737    1.0676    1.1584 H   0  0  0  0  0  0  0  0  0  0  0  0
    3.2716    1.0128   -1.3141 H   0  0  0  0  0  0  0  0  0  0  0  0
    4.7590    0.1064   -0.8919 H   0  0  0  0  0  0  0  0  0  0  0  0
    3.3440   -1.8049    0.1120 H   0  0  0  0  0  0  0  0  0  0  0  0
    1.3841   -1.2703   -1.4036 H   0  0  0  0  0  0  0  0  0  0  0  0
    0.9137   -2.6843    0.5882 H   0  0  0  0  0  0  0  0  0  0  0  0
    0.7171   -1.1655    1.5083 H   0  0  0  0  0  0  0  0  0  0  0  0
   -0.7866    0.2870   -1.1259 H   0  0  0  0  0  0  0  0  0  0  0  0
   -3.1783    0.5148   -1.1885 H   0  0  0  0  0  0  0  0  0  0  0  0
   -3.4131   -0.6833   -0.0948 H   0  0  0  0  0  0  0  0  0  0  0  0
   -1.9476    0.3652    1.7548 H   0  0  0  0  0  0  0  0  0  0  0  0
   -0.3021    0.8182    1.2936 H   0  0  0  0  0  0  0  0  0  0  0  0
   -2.8898    2.2369    0.3912 H   0  0  0  0  0  0  0  0  0  0  0  0
   -1.7135    2.8200    1.5673 H   0  0  0  0  0  0  0  0  0  0  0  0
   -1.2125    2.4060   -1.4524 H   0  0  0  0  0  0  0  0  0  0  0  0
   -1.4362    3.9494   -0.6217 H   0  0  0  0  0  0  0  0  0  0  0  0
    0.6908    3.4556    0.7419 H   0  0  0  0  0  0  0  0  0  0  0  0
    0.9785    3.5904   -0.9970 H   0  0  0  0  0  0  0  0  0  0  0  0
    0.9251    1.9967   -0.2334 H   0  0  0  0  0  0  0  0  0  0  0  0
   -1.7859   -2.2939   -1.5653 H   0  0  0  0  0  0  0  0  0  0  0  0
   -1.7152   -3.0418    1.0614 H   0  0  0  0  0  0  0  0  0  0  0  0
  1 16  1  0  0  0  0
  1 15  1  0  0  0  0
  2  3  1  0  0  0  0
  2  1  1  0  0  0  0
  3 19  1  0  0  0  0
  3  1  1  0  0  0  0
  4  3  1  0  0  0  0
  4  5  1  0  0  0  0
  5 21  1  0  0  0  0
  5 22  1  0  0  0  0
  6  5  1  0  0  0  0
  6 14  1  0  0  0  0
  7 23  1  6  0  0  0
  7  6  1  0  0  0  0
  7  9  1  0  0  0  0
  8  7  1  0  0  0  0
  8 25  1  0  0  0  0
  9 27  1  0  0  0  0
  9 26  1  0  0  0  0
 10  9  1  0  0  0  0
 10 29  1  0  0  0  0
 11 12  1  0  0  0  0
 11 10  1  0  0  0  0
 12 32  1  0  0  0  0
 13  6  1  0  0  0  0
 17  2  1  0  0  0  0
 18  2  1  0  0  0  0
 20  4  1  0  0  0  0
 24  8  1  0  0  0  0
 28 10  1  0  0  0  0
 30 11  1  0  0  0  0
 31 11  1  0  0  0  0
 33 12  1  0  0  0  0
 34 12  1  0  0  0  0
 35 13  1  0  0  0  0
 36 14  1  0  0  0  0
M  END
